%nproc=1
%NoSave
%Mem=1900MB
#P OB98/GEN NMR

erre ene a

0 1
  C     -211.725     191.137      64.696
  O     -210.655     190.198      64.520
  P     -211.089     188.665      64.264
  C     -210.317     188.072      61.853
  O     -210.029     188.013      63.250
  C     -209.153     187.553      61.003
  O     -208.168     188.607      60.850
  C     -208.424     186.336      61.590
  O     -208.033     185.478      60.504
  C     -207.151     186.940      62.170
  O     -206.108     185.973      62.292
  C     -206.879     188.051      61.157
  N     -202.252     190.065      60.746
  C     -202.869     189.097      59.970
  N     -202.131     188.589      58.955
  N     -204.086     188.679      60.173
  C     -204.714     189.303      61.199
  C     -204.218     190.279      62.040
  C     -202.844     190.705      61.835
  O     -202.228     191.516      62.520
  N     -205.149     190.663      62.969
  C     -206.209     189.923      62.702
  N     -205.984     189.072      61.642
  O     -212.428     188.809      63.400
  O     -211.328     187.897      65.521
  H     -206.123     185.431      61.474
  H     -213.165     188.341      63.844
  H     -201.296     190.338      60.571
  H     -207.140     189.938      63.251
  H     -206.460     187.641      60.226
  H     -207.363     187.343      63.167
  H     -201.211     188.911      58.711
  H     -209.003     185.770      62.324
  H     -202.583     187.913      58.346
  H     -209.536     187.325      60.003
  H     -210.537     189.109      61.575
  H     -211.219     187.478      61.656
  P     -208.593     183.972      60.555
  C     -210.924     184.651      59.601
  O     -209.741     183.893      59.432
  O     -209.412     183.923      61.930
  O     -207.533     182.918      60.478
  H     -209.432     183.012      62.279
  H     -210.836     185.370      60.425
  H     -211.749     183.960      59.821
  H     -211.139     185.191      58.678
  H     -211.319     192.114      64.857
  H     -212.315     190.851      65.542
  H     -212.339     191.146      63.820

 3  4  5  6  7  8  9  10  11  12  23  26  30  31  33  0
 6-311+G(2d,p)
 ****
 35  36  37  38 0
 6-311+G(2d,p)
 ****
 1  2  13  14  15  16  17  18  19  20  21  22  24  25  27  28  29 0
 3-21G
 ****
 32  34  39  40  41  42  43  44  45  46  47  48  49 0
 3-21G
 ****


