%nproc=1
%NoSave
%Mem=1900MB
#P OB98/GEN NMR

erre ene a

0 1
  C       59.160    -330.353    -593.055
  O       60.522    -330.683    -592.891
  H       59.059    -329.470    -593.691
  H       58.646    -331.194    -593.530
  H       58.700    -330.164    -592.080
  P       61.471    -329.528    -592.302
  C       63.412    -331.248    -592.337
  O       62.977    -329.940    -592.682
  C       64.940    -331.304    -592.318
  O       65.460    -330.367    -591.350
  C       65.522    -332.655    -591.924
  O       65.498    -333.584    -593.008
  C       66.948    -332.249    -591.563
  O       67.729    -332.115    -592.760
  C       66.745    -330.883    -590.907
  N       68.736    -328.828    -586.645
  C       68.941    -328.555    -587.953
  N       68.381    -329.146    -589.034
  C       67.522    -330.110    -588.656
  C       67.218    -330.494    -587.358
  C       67.876    -329.815    -586.323
  N       67.672    -330.105    -584.988
  N       66.281    -331.505    -587.359
  C       66.020    -331.737    -588.633
  N       66.758    -330.912    -589.458
  O       61.413    -329.768    -590.717
  O       61.077    -328.138    -592.661
  H       67.805    -333.012    -593.145
  H       61.446    -328.906    -590.265
  H       69.634    -327.746    -588.167
  H       65.316    -332.467    -589.002
  H       67.506    -330.162    -591.241
  H       67.446    -332.986    -590.926
  H       65.018    -333.061    -591.038
  H       65.301    -330.999    -593.309
  H       63.039    -331.963    -593.082
  H       68.015    -329.463    -584.292
  H       67.020    -330.855    -584.760
  H       63.006    -331.507    -591.359
  P       65.071    -335.087    -592.673
  C       63.981    -335.539    -594.983
  O       65.040    -335.856    -594.087
  O       63.517    -334.956    -592.286
  O       65.853    -335.750    -591.582
  H       63.260    -335.694    -591.706
  H       64.084    -336.119    -595.876
  H       64.020    -334.498    -595.228
  H       63.043    -335.761    -594.519

 6  7  8  9  10  11  12  13  14  15  25  28  32  33  34  35 0
 6-311+G(2d,p)
 ****
 36  39  40 0
 6-311+G(2d,p)
 ****
 1  2  3  4  5  16  17  18  19  20  21  22  23  24 0
 3-21G
 ****
 26  27  29  30  31  37  38  41  42  43  44  45  46  47  48 0
 3-21G
 ****


