%nproc=1
%NoSave
%Mem=1900MB
#P OB98/GEN NMR

erre ene a

0 1
  C     -182.061     177.555      65.897
  O     -181.998     176.368      65.130
  H     -182.281     177.290      66.934
  H     -182.856     178.208      65.527
  H     -181.104     178.082      65.866
  P     -181.690     176.493      63.564
  C     -180.157     174.418      63.496
  O     -181.374     175.005      63.057
  C     -180.096     172.957      63.065
  O     -181.026     172.168      63.830
  C     -180.441     172.731      61.594
  O     -179.320     173.012      60.772
  C     -180.809     171.257      61.622
  O     -179.612     170.459      61.686
  C     -181.586     171.157      62.946
  N     -186.195     169.518      64.273
  C     -184.951     168.978      64.537
  N     -184.939     167.811      65.216
  N     -183.826     169.522      64.153
  C     -183.998     170.647      63.424
  C     -185.177     171.269      63.083
  C     -186.413     170.689      63.561
  O     -187.536     171.145      63.364
  N     -184.958     172.357      62.277
  C     -183.645     172.414      62.164
  N     -183.017     171.389      62.829
  O     -180.650     177.499      63.170
  O     -183.114     176.812      62.911
  H     -179.132     170.610      60.851
  H     -183.258     177.772      62.829
  H     -187.026     169.041      64.580
  H     -183.102     173.175      61.616
  H     -181.456     170.184      63.433
  H     -181.368     170.937      60.743
  H     -185.760     167.221      65.279
  H     -181.325     173.303      61.291
  H     -184.041     167.373      65.376
  H     -179.091     172.581      63.293
  H     -180.127     174.497      64.588
  H     -179.301     174.959      63.081
  P     -179.198     174.409      59.989
  C     -177.004     174.927      61.252
  O     -177.631     174.747      59.990
  O     -180.071     175.498      60.511
  O     -179.471     174.038      58.461
  H     -180.427     174.069      58.212
  H     -175.967     175.146      61.107
  H     -177.102     174.032      61.830
  H     -177.471     175.739      61.770

 6  7  8  9  10  11  12  13  14  15  26  29  33  34 0
 6-311+G(2d,p)
 ****
 36  38  39  40  41 0
 6-311+G(2d,p)
 ****
 1  2  3  4  5  16  17  18  19  20  21  22  23  24  25 0
 3-21G
 ****
 27  28  30  31  32  35  37  42  43  44  45  46  47 0
 3-21G
 ****
 48  49 0
 3-21G
 ****


