%nproc=1
%NoSave
%Mem=1900MB
#P OB98/GEN NMR

erre ene a

0 1
  C     -478.138     716.224    -832.836
  O     -478.979     716.812    -831.863
  H     -478.486     716.528    -833.821
  H     -478.172     715.133    -832.765
  H     -477.114     716.575    -832.697
  P     -478.657     716.458    -830.328
  C     -477.172     718.508    -829.784
  O     -477.211     717.109    -830.058
  C     -476.938     718.758    -828.290
  O     -475.721     718.151    -827.865
  C     -476.858     720.227    -827.906
  O     -478.147     720.780    -827.748
  C     -476.120     720.129    -826.585
  O     -477.055     719.790    -825.536
  C     -475.139     718.969    -826.813
  N     -470.220     719.078    -825.375
  C     -471.344     718.785    -824.684
  N     -472.629     718.841    -825.117
  C     -472.687     719.213    -826.406
  C     -471.621     719.545    -827.227
  C     -470.334     719.466    -826.673
  N     -469.170     719.760    -827.372
  N     -472.057     719.890    -828.493
  C     -473.363     719.710    -828.448
  N     -473.794     719.342    -827.193
  O     -478.815     715.029    -829.947
  O     -479.650     717.471    -829.568
  H     -476.528     719.660    -824.719
  H     -479.650     718.341    -830.019
  H     -471.212     718.487    -823.656
  H     -474.041     719.831    -829.290
  H     -475.053     718.327    -825.927
  H     -475.645     721.069    -826.284
  H     -476.251     720.796    -828.621
  H     -477.760     718.253    -827.750
  H     -478.100     718.990    -830.110
  H     -468.323     719.861    -826.845
  H     -469.274     720.163    -828.287
  H     -476.346     718.932    -830.374
  P     -478.521     722.229    -828.316
  C     -479.766     721.018    -830.221
  O     -478.773     721.999    -829.886
  O     -477.540     723.292    -827.978
  O     -479.985     722.524    -827.748
  H     -480.188     723.478    -827.815
  H     -479.852     720.946    -831.285
  H     -480.708     721.308    -829.806
  H     -479.478     720.068    -829.822

 6  7  8  9  10  11  12  13  14  15  25  28  32  33  34  35 0
 6-311+G(2d,p)
 ****
 36  39  40 0
 6-311+G(2d,p)
 ****
 1  2  3  4  5  16  17  18  19  20  21  22  23  24 0
 3-21G
 ****
 26  27  29  30  31  37  38  41  42  43  44  45  46  47 0
 3-21G
 ****
 48 0
 3-21G
 ****


