%nproc=1
%NoSave
%Mem=1900MB
#P OB98/GEN NMR

erre ene a

0 1
  C     -638.566    -664.457    -719.428
  O     -639.120    -664.153    -720.689
  H     -637.523    -664.132    -719.412
  H     -638.607    -665.538    -719.249
  H     -639.112    -663.933    -718.639
  P     -640.644    -664.602    -720.944
  C     -641.409    -662.994    -722.833
  O     -640.961    -664.297    -722.486
  C     -641.712    -662.935    -724.329
  O     -640.490    -662.973    -725.087
  C     -642.541    -664.112    -724.834
  O     -643.927    -663.975    -724.529
  C     -642.258    -664.041    -726.326
  O     -643.126    -663.095    -726.985
  C     -640.792    -663.570    -726.361
  N     -639.876    -664.663    -726.695
  C     -639.869    -665.064    -728.030
  O     -640.583    -664.546    -728.896
  N     -639.039    -666.098    -728.337
  C     -638.259    -666.800    -727.457
  O     -637.585    -667.776    -727.780
  C     -638.299    -666.319    -726.059
  C     -639.099    -665.295    -725.750
  O     -641.487    -663.494    -720.153
  O     -640.974    -665.993    -720.499
  H     -641.805    -663.865    -719.311
  H     -642.794    -663.017    -727.906
  H     -639.033    -666.412    -729.294
  H     -637.691    -666.850    -725.342
  H     -639.156    -664.950    -724.730
  H     -640.658    -662.776    -727.116
  H     -642.418    -665.005    -726.817
  H     -642.145    -665.063    -724.446
  H     -642.219    -661.986    -724.547
  H     -640.621    -662.266    -722.601
  H     -642.300    -662.744    -722.241
  P     -644.917    -665.158    -724.951
  C     -646.151    -665.299    -722.621
  O     -646.217    -665.010    -724.009
  O     -644.165    -666.431    -724.364
  O     -645.220    -665.212    -726.417
  H     -643.703    -666.253    -723.531
  H     -647.112    -665.140    -722.178
  H     -645.433    -664.656    -722.157
  H     -645.859    -666.319    -722.483

 6  7  8  9  10  11  12  13  14  15  16  27  31  32  33  34  35 0
 6-311+G(2d,p)
 ****
 36  37 0
 6-311+G(2d,p)
 ****
 1  2  3  4  5  17  18  19  20  21  22  23  24  25 0
 3-21G
 ****
 26  28  29  30  38  39  40  41  42  43  44  45 0
 3-21G
 ****


