%nproc=1
%NoSave
%Mem=1900MB
#P OB98/GEN NMR

erre ene a

0 1
  C     -241.665     298.199    -124.998
  O     -240.894     298.695    -126.085
  P     -239.540     297.911    -126.450
  C     -237.537     299.518    -126.084
  O     -238.407     298.548    -125.513
  C     -236.152     299.436    -125.452
  O     -236.236     299.761    -124.054
  C     -235.510     298.058    -125.512
  O     -234.912     297.806    -126.776
  C     -234.455     298.179    -124.421
  O     -233.294     298.850    -124.942
  C     -235.161     299.061    -123.380
  N     -234.160     296.704    -119.006
  C     -233.314     297.377    -119.863
  N     -232.017     297.460    -119.487
  N     -233.699     297.922    -120.987
  C     -235.027     297.797    -121.213
  C     -235.967     297.149    -120.443
  C     -235.519     296.507    -119.228
  O     -236.211     295.837    -118.461
  N     -237.220     297.249    -120.996
  C     -237.045     297.984    -122.075
  N     -235.726     298.315    -122.267
  O     -239.179     298.477    -127.903
  O     -239.651     296.425    -126.444
  H     -232.669     298.955    -124.202
  H     -238.636     297.824    -128.389
  H     -233.813     296.318    -118.147
  H     -237.837     298.294    -122.740
  H     -234.485     299.821    -122.975
  H     -234.119     297.206    -124.043
  H     -231.689     297.177    -118.577
  H     -236.228     297.275    -125.244
  H     -231.389     297.984    -120.083
  H     -235.511     300.183    -125.936
  H     -237.949     300.520    -125.911
  H     -237.479     299.346    -127.165
  P     -235.353     296.453    -127.522
  C     -233.182     295.023    -127.557
  O     -234.411     295.309    -126.913
  O     -234.802     296.655    -129.011
  O     -236.821     296.185    -127.493
  H     -235.332     296.132    -129.642
  H     -232.722     295.930    -127.960
  H     -233.355     294.311    -128.368
  H     -232.500     294.576    -126.831
  H     -242.532     298.812    -124.867
  H     -241.076     298.219    -124.105
  H     -241.966     297.193    -125.204

 3  4  5  6  7  8  9  10  11  12  23  26  30  31  33  0
 6-311+G(2d,p)
 ****
 35  36  37  38 0
 6-311+G(2d,p)
 ****
 1  2  13  14  15  16  17  18  19  20  21  22  24  25  27  28  29 0
 3-21G
 ****
 32  34  39  40  41  42  43  44  45  46  47  48  49 0
 3-21G
 ****


