%nproc=1
%NoSave
%Mem=1900MB
#P OB98/GEN NMR

erre ene a

0 1
  C      -92.119    -160.393    -278.219
  O      -92.746    -161.643    -277.916
  P      -94.169    -161.908    -278.612
  C      -96.471    -160.716    -278.681
  O      -95.204    -160.815    -278.044
  C      -97.515    -160.080    -277.754
  O      -97.884    -160.996    -276.679
  C      -97.041    -158.781    -277.092
  O      -98.190    -157.931    -276.969
  C      -96.622    -159.244    -275.710
  O      -96.555    -158.156    -274.789
  C      -97.712    -160.275    -275.436
  N      -97.915    -160.939    -270.434
  C      -98.242    -159.837    -271.199
  N      -98.745    -158.772    -270.540
  N      -98.092    -159.787    -272.499
  C      -97.614    -160.941    -273.029
  C      -97.269    -162.105    -272.377
  C      -97.409    -162.134    -270.937
  O      -97.139    -163.084    -270.215
  N      -96.852    -163.070    -273.265
  C      -96.887    -162.457    -274.439
  N      -97.394    -161.188    -274.353
  O      -94.654    -163.276    -277.939
  O      -94.100    -162.011    -280.100
  H      -96.326    -158.526    -273.909
  H      -94.491    -164.023    -278.546
  H      -98.035    -160.920    -269.436
  H      -96.583    -162.895    -275.373
  H      -98.672    -159.811    -275.173
  H      -95.632    -159.719    -275.752
  H      -98.932    -158.765    -269.551
  H      -96.240    -158.263    -277.629
  H      -99.033    -157.964    -271.083
  H      -98.420    -159.886    -278.343
  H      -96.813    -161.710    -278.979
  H      -96.362    -160.142    -279.608
  P      -98.072    -156.434    -277.521
  C      -97.060    -154.207    -276.666
  O      -97.393    -155.553    -276.372
  O      -99.596    -155.928    -277.531
  O      -97.464    -156.314    -278.881
  H      -99.752    -155.376    -278.322
  H      -97.062    -153.634    -275.737
  H      -97.770    -153.757    -277.364
  H      -96.056    -154.174    -277.101
  H      -91.184    -160.329    -277.703
  H      -92.754    -159.590    -277.908
  H      -91.950    -160.325    -279.273

 3  4  5  6  7  8  9  10  11  12  23  26  30  31 0
 6-311+G(2d,p)
 ****
 33  35  36  37  38 0
 6-311+G(2d,p)
 ****
 1  2  13  14  15  16  17  18  19  20  21  22  24  25 0
 3-21G
 ****
 27  28  29  32  34  39  40  41  42  43  44  45  46  47  48  49 0
 3-21G
 ****


