%nproc=1
%NoSave
%Mem=1900MB
#P OB98/GEN NMR

erre ene a

0 1
  C     -262.572    -114.226    -233.702
  O     -262.311    -115.198    -232.710
  H     -263.249    -114.660    -234.443
  H     -261.647    -113.935    -234.205
  H     -263.051    -113.348    -233.264
  P     -261.333    -114.808    -231.499
  C     -261.080    -117.222    -230.591
  O     -260.457    -116.137    -231.259
  C     -260.150    -118.432    -230.569
  O     -260.119    -119.090    -231.853
  C     -258.688    -118.114    -230.266
  O     -258.445    -117.789    -228.907
  C     -258.047    -119.426    -230.673
  O     -258.291    -120.420    -229.661
  C     -258.821    -119.745    -231.972
  N     -258.125    -119.283    -233.172
  C     -257.367    -120.240    -233.863
  O     -257.304    -121.401    -233.461
  N     -256.674    -119.851    -234.985
  C     -256.710    -118.612    -235.366
  N     -255.999    -118.282    -236.479
  C     -257.475    -117.569    -234.658
  C     -258.151    -117.969    -233.583
  O     -261.989    -114.245    -230.281
  O     -260.253    -113.825    -232.155
  H     -257.579    -121.082    -229.739
  H     -259.627    -113.545    -231.442
  H     -257.448    -116.544    -235.001
  H     -258.732    -117.259    -233.005
  H     -259.011    -120.821    -232.062
  H     -256.965    -119.355    -230.802
  H     -258.314    -117.322    -230.928
  H     -260.562    -119.152    -229.849
  H     -255.485    -119.015    -236.946
  H     -262.012    -117.453    -231.110
  H     -255.906    -117.327    -236.805
  H     -261.307    -116.943    -229.559
  P     -257.090    -116.990    -228.581
  C     -256.852    -118.579    -226.521
  O     -256.226    -117.939    -227.623
  O     -257.587    -115.813    -227.623
  O     -256.347    -116.485    -229.778
  H     -257.702    -114.982    -228.125
  H     -256.131    -119.169    -225.995
  H     -257.639    -119.211    -226.876
  H     -257.257    -117.840    -225.862

 6  7  8  9  10  11  12  13  14  15  16  26  30  31  32  33  35 0
 6-311+G(2d,p)
 ****
 37  38 0
 6-311+G(2d,p)
 ****
 1  2  3  4  5  17  18  19  20  21  22  23  24  25 0
 3-21G
 ****
 27  28  29  34  36  39  40  41  42  43  44  45  46 0
 3-21G
 ****


