%nproc=1
%NoSave
%Mem=1900MB
#P OB98/GEN NMR

erre ene a

0 1
  C      434.036     512.484      84.197
  O      434.315     511.734      83.025
  P      433.133     511.012      82.202
  C      431.271     509.458      83.089
  O      432.643     509.812      83.147
  C      430.955     508.397      84.146
  O      430.839     509.034      85.444
  C      429.648     507.657      83.932
  O      429.783     506.682      82.906
  C      429.392     507.106      85.330
  O      430.191     505.930      85.563
  C      429.893     508.264      86.218
  N      428.809     509.106      86.725
  C      428.088     508.607      87.816
  O      428.371     507.526      88.321
  N      427.076     509.378      88.336
  C      426.790     510.527      87.799
  N      425.814     511.275      88.400
  C      427.486     511.062      86.614
  C      428.486     510.308      86.138
  O      433.497     510.600      80.819
  O      431.910     512.034      82.271
  H      430.105     505.715      86.509
  H      431.907     512.704      81.542
  H      427.202     512.024      86.202
  H      429.057     510.639      85.284
  H      430.455     507.866      87.075
  H      428.341     506.842      85.512
  H      428.844     508.360      83.656
  H      431.798     507.702      84.189
  H      425.490     510.953      89.311
  H      431.054     509.044      82.100
  H      425.740     512.274      88.239
  H      430.656     510.354      83.236
  P      428.516     506.433      81.950
  C      426.038     505.960      82.572
  O      427.399     505.724      82.871
  O      429.019     505.272      80.969
  O      428.058     507.648      81.215
  H      429.278     505.648      80.102
  H      425.428     505.230      83.116
  H      425.857     505.833      81.497
  H      425.748     506.963      82.880
  H      434.948     512.880      84.593
  H      433.577     511.849      84.926
  H      433.373     513.288      83.956

 3  4  5  6  7  8  9  10  11  12  13  23  27  28  29  30  32 0
 6-311+G(2d,p)
 ****
 34  35 0
 6-311+G(2d,p)
 ****
 1  2  14  15  16  17  18  19  20  21  22  24  25  26 0
 3-21G
 ****
 31  33  36  37  38  39  40  41  42  43  44  45  46 0
 3-21G
 ****


