%nproc=1
%NoSave
%Mem=1900MB
#P OB98/GEN NMR

erre ene a

0 1
  C      103.715      44.131    -304.970
  O      102.969      43.315    -304.087
  H      103.029      44.573    -305.699
  H      104.460      43.537    -305.504
  H      104.204      44.941    -304.419
  P      103.748      42.494    -302.953
  C      103.079      40.689    -301.228
  O      102.760      41.323    -302.466
  C      101.990      39.672    -300.861
  O      100.743      40.393    -300.726
  C      101.808      38.589    -301.937
  O      101.885      37.259    -301.415
  C      100.515      38.999    -302.634
  O       99.809      37.937    -303.240
  C       99.743      39.730    -301.526
  N       98.760      40.689    -302.026
  C       97.425      40.284    -302.047
  O       97.009      39.192    -301.656
  N       96.536      41.206    -302.541
  C       96.841      42.450    -303.007
  O       95.998      43.236    -303.432
  C       98.267      42.814    -302.979
  C       99.147      41.929    -302.498
  O      104.343      43.310    -301.854
  O      104.875      41.693    -303.764
  H       99.707      37.226    -302.571
  H      105.737      42.135    -303.649
  H       95.567      40.929    -302.551
  H       98.547      43.790    -303.350
  H      100.210      42.163    -302.463
  H       99.218      39.013    -300.890
  H      100.767      39.715    -303.426
  H      102.631      38.618    -302.664
  H      102.230      39.236    -299.882
  H      103.152      41.466    -300.461
  H      104.047      40.181    -301.316
  P      103.087      36.243    -301.689
  C      104.255      34.321    -300.333
  O      103.153      35.211    -300.466
  O      104.372      36.863    -302.122
  O      102.537      35.343    -302.911
  H      103.319      35.099    -303.452
  H      104.121      33.715    -299.462
  H      105.160      34.885    -300.239
  H      104.314      33.694    -301.198

 6  7  8  9  10  11  12  13  14  15  16  26  31  32  33  34  35 0
 6-311+G(2d,p)
 ****
 36  37 0
 6-311+G(2d,p)
 ****
 1  2  3  4  5  17  18  19  20  21  22  23  24  25 0
 3-21G
 ****
 27  28  29  30  38  39  40  41  42  43  44  45 0
 3-21G
 ****


