%nproc=1
%NoSave
%Mem=1900MB
#P OB98/GEN NMR

erre ene a

0 1
  C      -32.970     121.173     997.676
  O      -33.648     121.528     996.485
  H      -32.860     122.042     998.320
  H      -33.560     120.420     998.209
  H      -31.987     120.752     997.443
  P      -32.969     122.657     995.572
  C      -32.110     121.080     993.697
  O      -33.011     122.116     994.055
  C      -32.677     120.277     992.531
  O      -33.626     119.307     993.046
  C      -33.395     121.121     991.451
  O      -32.789     120.923     990.177
  C      -34.813     120.553     991.414
  O      -35.335     120.455     990.091
  C      -34.661     119.180     992.066
  N      -38.399     115.723     991.815
  C      -37.131     115.689     991.354
  N      -36.147     116.606     991.545
  C      -36.584     117.618     992.323
  C      -37.840     117.768     992.892
  C      -38.788     116.768     992.597
  N      -40.101     116.807     993.019
  N      -37.906     118.942     993.627
  C      -36.731     119.497     993.473
  N      -35.905     118.756     992.678
  O      -31.413     122.559     995.966
  O      -33.500     124.039     995.772
  H      -34.736     119.854     989.596
  H      -31.064     123.452     996.140
  H      -36.863     114.839     990.746
  H      -36.448     120.467     993.870
  H      -34.354     118.412     991.340
  H      -35.478     121.203     992.002
  H      -33.406     122.193     991.703
  H      -31.858     119.706     992.066
  H      -31.964     120.405     994.554
  H      -40.728     116.120     992.663
  H      -40.414     117.653     993.507
  H      -31.145     121.518     993.434
  P      -33.326     121.862     988.970
  C      -31.211     123.331     988.544
  O      -32.033     122.268     988.087
  O      -33.701     123.221     989.716
  O      -34.481     121.292     988.226
  H      -34.395     123.698     989.225
  H      -30.403     123.478     987.858
  H      -30.819     123.089     989.510
  H      -31.791     124.228     988.609

 6  7  8  9  10  11  12  13  14  15  25  28  32  33  34  35 0
 6-311+G(2d,p)
 ****
 36  39  40 0
 6-311+G(2d,p)
 ****
 1  2  3  4  5  16  17  18  19  20  21  22  23  24 0
 3-21G
 ****
 26  27  29  30  31  37  38  41  42  43  44  45  46  47  48 0
 3-21G
 ****


