%nproc=1
%NoSave
%Mem=1900MB
#P OB98/GEN NMR

erre ene a

0 1
  C     -129.328     317.123    -158.064
  O     -130.144     317.121    -159.238
  P     -130.891     318.500    -159.598
  C     -129.356     318.777    -161.684
  O     -129.886     319.366    -160.501
  C     -129.525     319.716    -162.875
  O     -130.915     319.985    -163.131
  C     -128.885     321.085    -162.690
  O     -127.487     321.047    -162.922
  C     -129.591     321.891    -163.773
  O     -128.948     321.672    -165.041
  C     -131.001     321.280    -163.772
  N     -134.340     325.080    -164.122
  C     -133.518     324.533    -165.085
  N     -133.616     325.057    -166.326
  N     -132.672     323.562    -164.855
  C     -132.703     323.116    -163.577
  C     -133.470     323.575    -162.530
  C     -134.378     324.673    -162.792
  O     -135.106     325.212    -161.968
  N     -133.229     322.867    -161.383
  C     -132.338     321.963    -161.736
  N     -131.975     322.083    -163.057
  O     -130.895     319.280    -158.201
  O     -132.268     318.319    -160.143
  H     -128.124     322.200    -165.040
  H     -131.648     319.902    -158.167
  H     -134.966     325.829    -164.350
  H     -131.930     321.203    -161.085
  H     -131.374     321.116    -164.788
  H     -129.565     322.966    -163.584
  H     -134.294     325.756    -166.590
  H     -129.125     321.498    -161.702
  H     -133.046     324.646    -167.056
  H     -129.099     319.223    -163.760
  H     -129.867     317.835    -161.887
  H     -128.300     318.540    -161.518
  P     -126.526     321.248    -161.652
  C     -125.489     318.920    -162.140
  O     -126.104     319.771    -161.195
  O     -127.535     321.735    -160.510
  O     -125.410     322.216    -161.868
  H     -127.065     322.299    -159.866
  H     -124.737     319.458    -162.725
  H     -126.246     318.503    -162.809
  H     -124.997     318.102    -161.609
  H     -128.889     316.156    -157.933
  H     -129.930     317.360    -157.212
  H     -128.554     317.855    -158.169

 3  4  5  6  7  8  9  10  11  12  23  26  30  31  33  0
 6-311+G(2d,p)
 ****
 35  36  37  38 0
 6-311+G(2d,p)
 ****
 1  2  13  14  15  16  17  18  19  20  21  22  24  25  27  28  29 0
 3-21G
 ****
 32  34  39  40  41  42  43  44  45  46  47  48  49 0
 3-21G
 ****


