%nproc=1
%NoSave
%Mem=1900MB
#P OB98/GEN NMR

erre ene a

0 1
  C      -24.362     272.261     -33.415
  O      -25.614     272.429     -34.065
  P      -25.858     271.621     -35.427
  C      -24.841     271.666     -37.829
  O      -24.842     272.209     -36.520
  C      -24.383     272.730     -38.831
  O      -25.335     273.810     -38.880
  C      -23.047     273.364     -38.477
  O      -21.964     272.529     -38.832
  C      -23.104     274.663     -39.277
  O      -22.699     274.443     -40.639
  C      -24.603     275.016     -39.206
  N      -24.879     276.092     -38.253
  C      -25.879     276.988     -38.618
  O      -26.493     276.906     -39.688
  N      -26.132     278.000     -37.737
  C      -25.454     278.238     -36.569
  O      -25.687     279.199     -35.845
  C      -24.384     277.273     -36.253
  C      -24.144     276.270     -37.089
  O      -27.290     272.135     -35.924
  O      -25.815     270.138     -35.286
  H      -22.761     275.309     -41.091
  H      -27.772     271.402     -36.356
  H      -26.869     278.646     -37.969
  H      -23.832     277.431     -35.334
  H      -23.360     275.556     -36.882
  H      -24.967     275.332     -40.194
  H      -22.441     275.431     -38.867
  H      -23.021     273.611     -37.402
  H      -24.336     272.268     -39.831
  H      -25.849     271.326     -38.080
  H      -24.167     270.800     -37.856
  P      -20.565     272.788     -38.071
  C      -18.901     274.797     -38.213
  O      -19.891     274.012     -38.851
  O      -19.740     271.493     -38.527
  O      -20.724     272.943     -36.596
  H      -19.979     271.195     -39.421
  H      -18.270     274.190     -37.558
  H      -19.381     275.590     -37.632
  H      -18.273     275.259     -38.980
  H      -24.339     272.855     -32.526
  H      -23.575     272.570     -34.071
  H      -24.228     271.231     -33.159

 3  4  5  6  7  8  9  10  11  12  13  23  28  29  30  31  32 0
 6-311+G(2d,p)
 ****
 33  34 0
 6-311+G(2d,p)
 ****
 1  2  14  15  16  17  18  19  20  21  22  24  25  26 0
 3-21G
 ****
 27  35  36  37  38  39  40  41  42  43  44  45 0
 3-21G
 ****


