%nproc=1
%NoSave
%Mem=1900MB
#P OB98/GEN NMR

erre ene a

0 1
  C     -293.660    -467.645     154.030
  O     -293.713    -469.044     153.862
  P     -294.213    -469.706     152.492
  C     -292.768    -471.822     152.762
  O     -294.091    -471.297     152.672
  C     -292.737    -473.013     153.722
  O     -292.741    -472.514     155.092
  C     -293.955    -473.952     153.556
  O     -293.620    -475.328     153.367
  C     -294.785    -473.648     154.791
  O     -295.700    -474.671     155.135
  C     -293.698    -473.315     155.820
  N     -294.232    -472.622     156.993
  C     -295.122    -473.331     157.796
  O     -295.472    -474.486     157.595
  N     -295.660    -472.631     158.847
  C     -295.501    -471.305     159.089
  O     -296.095    -470.726     159.991
  C     -294.582    -470.603     158.185
  C     -293.978    -471.278     157.209
  O     -293.566    -469.174     151.257
  O     -295.799    -469.486     152.542
  H     -295.193    -475.496     155.248
  H     -296.245    -469.897     153.301
  H     -296.309    -473.140     159.434
  H     -294.443    -469.540     158.349
  H     -293.295    -470.787     156.520
  H     -293.182    -474.211     156.159
  H     -295.378    -472.749     154.580
  H     -294.527    -473.697     152.659
  H     -291.799    -473.557     153.553
  H     -292.108    -471.043     153.139
  H     -292.415    -472.109     151.760
  P     -294.418    -476.351     152.434
  C     -292.219    -477.300     151.413
  O     -293.441    -477.567     152.066
  O     -295.120    -475.733     151.267
  O     -295.477    -477.022     153.436
  H     -296.275    -477.293     152.938
  H     -291.946    -478.170     150.812
  H     -291.434    -477.128     152.161
  H     -292.295    -476.425     150.759
  H     -293.300    -467.417     155.012
  H     -294.640    -467.233     153.905
  H     -293.000    -467.223     153.301

 3  4  5  6  7  8  9  10  11  12  13  23  28  29  30  31  32 0
 6-311+G(2d,p)
 ****
 33  34 0
 6-311+G(2d,p)
 ****
 1  2  14  15  16  17  18  19  20  21  22  24  25  26  27 0
 3-21G
 ****
 35  36  37  38  39  40  41  42  43  44  45 0
 3-21G
 ****


