%nproc=1
%NoSave
%Mem=1900MB
#P OB98/GEN NMR

erre ene a

0 1
  C       75.922     -62.474      55.483
  O       75.182     -63.299      54.576
  P       76.001     -64.322      53.649
  C       77.421     -64.185      51.470
  O       76.501     -63.543      52.340
  C       77.406     -63.528      50.085
  O       76.205     -63.856      49.354
  C       77.448     -62.009      50.126
  O       78.779     -61.529      50.296
  C       76.934     -61.658      48.738
  O       77.993     -61.803      47.770
  C       75.860     -62.733      48.511
  N       71.025     -62.347      46.844
  C       72.152     -62.805      46.251
  N       73.404     -62.860      46.755
  C       73.434     -62.386      48.008
  C       72.367     -61.883      48.744
  C       71.116     -61.868      48.114
  N       69.973     -61.404      48.723
  N       72.788     -61.476      49.996
  C       74.075     -61.747      50.024
  N       74.511     -62.288      48.844
  O       74.858     -65.292      53.085
  O       77.058     -65.090      54.379
  H       77.571     -61.825      46.890
  H       75.210     -66.195      52.981
  H       72.030     -63.186      45.239
  H       74.728     -61.570      50.868
  H       75.840     -63.086      47.471
  H       76.578     -60.624      48.669
  H       76.765     -61.617      50.895
  H       78.267     -63.906      49.520
  H       77.176     -65.248      51.383
  H       69.104     -61.455      48.212
  H       70.032     -61.071      49.672
  H       78.423     -64.137      51.914
  P       79.050     -60.550      51.538
  C       78.269     -58.136      52.095
  O       78.460     -59.126      51.104
  O       80.636     -60.350      51.491
  O       78.588     -61.081      52.856
  H       80.984     -60.193      52.392
  H       78.162     -57.163      51.608
  H       79.121     -58.090      52.783
  H       77.357     -58.347      52.659
  H       75.246     -61.849      56.029
  H       76.606     -61.863      54.932
  H       76.466     -63.093      56.165

 3  4  5  6  7  8  9  10  11  12  22  25  29  30  31  32 0
 6-311+G(2d,p)
 ****
 33  36  37 0
 6-311+G(2d,p)
 ****
 1  2  13  14  15  16  17  18  19  20  21  23  24  26 0
 3-21G
 ****
 27  28  34  35  38  39  40  41  42  43  44  45  46  47  48 0
 3-21G
 ****


