%nproc=1
%NoSave
%Mem=1900MB
#P OB98/GEN NMR

erre ene a

0 1
  C     -474.703     431.393     -31.721
  O     -475.448     430.456     -30.953
  P     -476.738     429.786     -31.645
  C     -476.768     427.389     -30.558
  O     -476.445     428.210     -31.672
  C     -475.484     426.905     -29.870
  O     -474.752     428.033     -29.345
  C     -475.709     425.980     -28.684
  O     -476.046     424.663     -29.095
  C     -474.382     426.103     -27.955
  O     -473.391     425.264     -28.575
  C     -474.036     427.590     -28.175
  N     -474.336     428.431     -27.017
  C     -473.390     428.434     -25.992
  O     -472.358     427.772     -26.032
  N     -473.696     429.211     -24.902
  C     -474.848     429.915     -24.719
  O     -475.089     430.562     -23.701
  C     -475.822     429.856     -25.820
  C     -475.523     429.128     -26.902
  O     -476.539     430.263     -33.158
  O     -478.022     430.199     -31.008
  H     -475.600     430.417     -33.371
  H     -472.583     425.336     -28.025
  H     -473.015     429.244     -24.159
  H     -476.749     430.391     -25.709
  H     -476.230     429.056     -27.717
  H     -472.968     427.702     -28.413
  H     -474.444     425.808     -26.901
  H     -476.518     426.379     -28.050
  H     -474.854     426.412     -30.628
  H     -477.346     426.529     -30.909
  H     -477.385     427.960     -29.855
  P     -477.420     424.053     -28.517
  C     -478.904     423.885     -30.663
  O     -478.579     424.593     -29.485
  O     -477.601     424.911     -27.175
  O     -477.379     422.581     -28.304
  H     -477.386     425.855     -27.297
  H     -479.909     424.174     -30.981
  H     -478.886     422.804     -30.509
  H     -478.193     424.149     -31.456
  H     -473.880     431.755     -31.141
  H     -475.335     432.212     -31.995
  H     -474.334     430.916     -32.605

 3  4  5  6  7  8  9  10  11  12  13  24  28  29  30  31  32 0
 6-311+G(2d,p)
 ****
 33  34 0
 6-311+G(2d,p)
 ****
 1  2  14  15  16  17  18  19  20  21  22  23  25  26  27 0
 3-21G
 ****
 35  36  37  38  39  40  41  42  43  44  45 0
 3-21G
 ****


