%nproc=1
%NoSave
%Mem=1900MB
#P OB98/GEN NMR

erre ene a

0 1
  C     -799.466     609.257    -170.000
  O     -800.606     610.072    -169.833
  H     -799.613     608.628    -170.887
  H     -799.304     608.612    -169.139
  H     -798.570     609.878    -170.170
  P     -800.738     610.903    -168.462
  C     -802.112     612.699    -169.698
  O     -802.073     611.777    -168.614
  C     -803.396     613.523    -169.676
  O     -803.561     614.155    -168.382
  C     -803.413     614.681    -170.683
  O     -803.502     614.249    -172.033
  C     -804.484     615.585    -170.112
  O     -805.806     615.247    -170.522
  C     -804.335     615.361    -168.591
  N     -803.745     616.507    -167.912
  C     -804.604     617.227    -167.077
  O     -805.791     616.945    -166.923
  N     -804.058     618.315    -166.456
  C     -802.780     618.779    -166.628
  O     -802.357     619.791    -166.076
  C     -801.930     617.997    -167.542
  C     -802.439     616.916    -168.134
  O     -799.528     611.698    -168.063
  O     -801.153     609.792    -167.389
  H     -805.901     615.507    -171.454
  H     -801.003     610.115    -166.465
  H     -804.656     618.848    -165.839
  H     -800.914     618.339    -167.693
  H     -801.828     616.313    -168.807
  H     -805.318     615.172    -168.141
  H     -804.329     616.627    -170.409
  H     -802.459     615.218    -170.590
  H     -804.256     612.856    -169.828
  H     -802.076     612.117    -170.630
  H     -801.236     613.354    -169.653
  P     -802.385     614.605    -173.118
  C     -802.880     612.319    -174.258
  O     -802.673     613.714    -174.434
  O     -800.978     614.740    -172.632
  O     -802.873     616.075    -173.594
  H     -802.073     616.592    -173.810
  H     -803.058     611.862    -175.209
  H     -803.726     612.161    -173.623
  H     -802.012     611.883    -173.810

 6  7  8  9  10  11  12  13  14  15  16  26  31  32  33  34  35 0
 6-311+G(2d,p)
 ****
 36  37 0
 6-311+G(2d,p)
 ****
 1  2  3  4  5  17  18  19  20  21  22  23  24  25 0
 3-21G
 ****
 27  28  29  30  38  39  40  41  42  43  44  45 0
 3-21G
 ****


