%nproc=1
%NoSave
%Mem=1900MB
#P OB98/GEN NMR

erre ene a

0 1
  C     -408.588     -92.029    -451.465
  O     -408.094     -91.388    -452.637
  P     -409.138     -90.725    -453.664
  C     -410.225     -92.776    -454.766
  O     -410.392     -91.714    -453.835
  C     -411.411     -92.898    -455.735
  O     -411.586     -91.671    -456.503
  C     -411.286     -94.048    -456.742
  O     -412.609     -94.567    -456.954
  C     -410.786     -93.336    -457.988
  O     -410.984     -94.098    -459.167
  C     -411.582     -92.030    -457.893
  N     -411.015     -90.974    -458.723
  C     -411.094     -91.134    -460.102
  O     -411.531     -92.184    -460.580
  N     -410.649     -90.117    -460.910
  C     -410.040     -89.100    -460.382
  N     -409.628     -88.101    -461.210
  C     -409.778     -88.982    -458.930
  C     -410.309     -89.932    -458.171
  O     -408.550     -90.224    -454.940
  O     -409.762     -89.517    -452.804
  H     -411.930     -94.346    -459.234
  H     -409.952     -88.769    -453.406
  H     -409.196     -88.161    -458.547
  H     -410.179     -89.931    -457.095
  H     -412.623     -92.187    -458.193
  H     -409.709     -93.140    -457.890
  H     -410.637     -94.860    -456.403
  H     -412.322     -93.038    -455.136
  H     -409.797     -88.206    -462.200
  H     -410.116     -93.716    -454.218
  H     -409.196     -87.251    -460.867
  H     -409.286     -92.629    -455.313
  P     -413.115     -95.787    -456.042
  C     -411.432     -97.710    -456.531
  O     -411.846     -96.677    -455.650
  O     -413.854     -96.715    -457.126
  O     -414.059     -95.433    -454.940
  H     -414.526     -97.260    -456.668
  H     -410.417     -98.013    -456.265
  H     -411.427     -97.367    -457.570
  H     -412.100     -98.570    -456.431
  H     -407.767     -92.413    -450.896
  H     -409.236     -92.834    -451.745
  H     -409.132     -91.322    -450.874

 3  4  5  6  7  8  9  10  11  12  13  23  27  28  29  30  32 0
 6-311+G(2d,p)
 ****
 34  35 0
 6-311+G(2d,p)
 ****
 1  2  14  15  16  17  18  19  20  21  22  24  25  26 0
 3-21G
 ****
 31  33  36  37  38  39  40  41  42  43  44  45  46 0
 3-21G
 ****


