%nproc=1
%NoSave
%Mem=1900MB
#P OB98/GEN NMR

erre ene a

0 1
  C        8.123     -40.134       5.050
  O        7.421     -41.360       5.117
  H        8.531     -39.988       4.047
  H        7.429     -39.320       5.271
  H        8.931     -40.119       5.788
  P        8.277     -42.691       4.852
  C        7.431     -42.807       2.402
  O        8.551     -42.739       3.272
  C        7.352     -44.188       1.756
  O        6.256     -44.237       0.820
  C        8.590     -44.591       0.961
  O        9.630     -45.061       1.806
  C        8.022     -45.710       0.102
  O        7.928     -46.919       0.878
  C        6.616     -45.182      -0.222
  N        6.660     -45.853      -5.294
  C        6.687     -46.730      -4.268
  N        6.651     -46.477      -2.943
  C        6.560     -45.157      -2.716
  C        6.500     -44.142      -3.657
  C        6.559     -44.531      -5.006
  N        6.600     -43.617      -6.047
  N        6.428     -42.907      -3.041
  C        6.462     -43.174      -1.753
  N        6.535     -44.518      -1.507
  O        7.201     -43.857       5.090
  O        9.476     -42.859       5.723
  H        7.520     -47.592       0.301
  H        7.296     -44.200       5.997
  H        6.750     -47.778      -4.547
  H        6.441     -42.431      -0.967
  H        5.863     -45.978      -0.208
  H        8.638     -45.934      -0.775
  H        8.932     -43.779       0.311
  H        7.144     -44.919       2.549
  H        7.529     -42.048       1.620
  H        7.096     -43.957      -6.866
  H        6.791     -42.664      -5.761
  H        6.525     -42.607       2.981
  P       11.135     -44.640       1.441
  C       11.814     -46.879       0.338
  O       11.546     -45.497       0.146
  O       11.986     -45.304       2.622
  O       11.383     -43.174       1.353
  H       12.516     -44.619       3.072
  H       12.074     -47.326      -0.599
  H       10.943     -47.360       0.733
  H       12.627     -46.993       1.025

 6  7  8  9  10  11  12  13  14  15  25  28  32  33  34  35 0
 6-311+G(2d,p)
 ****
 36  39  40 0
 6-311+G(2d,p)
 ****
 1  2  3  4  5  16  17  18  19  20  21  22  23  24 0
 3-21G
 ****
 26  27  29  30  31  37  38  41  42  43  44  45  46  47  48 0
 3-21G
 ****


