%nproc=1
%NoSave
%Mem=1900MB
#P OB98/GEN NMR

erre ene a

0 1
  C      285.284    -847.234    -155.069
  O      285.018    -847.634    -156.424
  P      284.108    -848.933    -156.664
  C      282.806    -847.701    -158.548
  O      283.520    -848.862    -158.159
  C      282.689    -847.634    -160.080
  O      283.984    -847.547    -160.710
  C      282.019    -848.860    -160.690
  O      280.604    -848.766    -160.624
  C      282.486    -848.762    -162.125
  O      281.681    -847.797    -162.840
  C      283.921    -848.265    -161.975
  N      286.580    -851.403    -164.931
  C      285.650    -850.429    -165.267
  N      285.403    -850.260    -166.591
  N      285.023    -849.675    -164.389
  C      285.392    -849.948    -163.100
  C      286.289    -850.897    -162.640
  C      286.956    -851.723    -163.624
  O      287.764    -852.606    -163.391
  N      286.383    -850.863    -161.283
  C      285.547    -849.910    -160.914
  N      284.912    -849.328    -161.987
  O      282.812    -848.627    -155.761
  O      284.750    -850.226    -156.285
  H      282.000    -847.796    -163.762
  H      282.412    -849.468    -155.469
  H      287.020    -851.953    -165.646
  H      285.384    -849.593    -159.889
  H      284.209    -847.554    -162.771
  H      282.388    -849.724    -162.666
  H      285.891    -850.767    -167.318
  H      282.391    -849.796    -160.225
  H      284.759    -849.521    -166.856
  H      282.103    -846.739    -160.346
  H      283.312    -846.792    -158.188
  H      281.821    -847.711    -158.078
  P      279.797    -849.936    -159.861
  C      277.867    -848.275    -159.330
  O      278.259    -849.511    -159.907
  O      280.219    -849.700    -158.327
  O      280.114    -851.321    -160.318
  H      280.240    -850.566    -157.864
  H      276.823    -848.087    -159.606
  H      278.478    -847.453    -159.729
  H      277.959    -848.312    -158.246
  H      285.899    -846.358    -155.070
  H      285.790    -848.025    -154.556
  H      284.361    -847.021    -154.572

 3  4  5  6  7  8  9  10  11  12  23  26  30  31 0
 6-311+G(2d,p)
 ****
 33  35  36  37  38 0
 6-311+G(2d,p)
 ****
 1  2  13  14  15  16  17  18  19  20  21  22  24  25 0
 3-21G
 ****
 27  28  29  32  34  39  40  41  42  43  44  45  46  47  48  49 0
 3-21G
 ****


