%nproc=1
%NoSave
%Mem=1900MB
#P OB98/GEN NMR

erre ene a

0 1
  C      103.327     -66.130     -11.530
  O      103.032     -66.107     -12.928
  P      101.830     -67.045     -13.429
  C       99.643     -65.890     -12.656
  O      100.550     -66.123     -13.723
  C       99.049     -64.477     -12.709
  O      100.097     -63.474     -12.732
  C       98.162     -64.234     -13.932
  O       97.120     -63.340     -13.535
  C       99.089     -63.507     -14.887
  O       98.354     -62.780     -15.868
  C       99.897     -62.649     -13.899
  N      101.164     -62.175     -14.451
  C      101.448     -60.815     -14.314
  O      100.617     -60.056     -13.810
  N      102.642     -60.336     -14.787
  C      103.462     -61.137     -15.394
  N      104.628     -60.602     -15.844
  C      103.178     -62.569     -15.614
  C      102.025     -63.014     -15.118
  O      101.420     -67.857     -12.112
  O      102.216     -67.967     -14.540
  H       97.717     -62.197     -15.401
  H      101.373     -68.811     -12.310
  H      103.881     -63.194     -16.144
  H      101.730     -64.046     -15.227
  H       99.317     -61.770     -13.589
  H       99.743     -64.222     -15.400
  H       97.728     -65.149     -14.347
  H       98.465     -64.319     -11.794
  H      104.791     -59.618     -15.666
  H      100.154     -66.026     -11.700
  H      105.335     -61.132     -16.330
  H       98.855     -66.649     -12.688
  P       95.658     -63.555     -14.154
  C       94.737     -65.178     -12.391
  O       94.718     -63.855     -12.890
  O       95.795     -65.018     -14.801
  O       95.154     -62.567     -15.150
  H       94.977     -65.243     -15.279
  H       94.156     -65.211     -11.465
  H       95.763     -65.490     -12.175
  H       94.281     -65.858     -13.115
  H      104.142     -65.467     -11.326
  H      103.595     -67.124     -11.238
  H      102.466     -65.816     -10.978

 3  4  5  6  7  8  9  10  11  12  13  21  23  27  28  29  30  32 0
 6-311+G(2d,p)
 ****
 34  35 0
 6-311+G(2d,p)
 ****
 1  2  14  15  16  17  18  19  20  22  24  25  26 0
 3-21G
 ****
 31  33  36  37  38  39  40  41  42  43  44  45  46 0
 3-21G
 ****


