%nproc=1
%NoSave
%Mem=1900MB
#P OB98/GEN NMR

erre ene a

0 1
  C     -185.306     -85.391      71.356
  O     -184.069     -85.562      70.694
  H     -185.115     -85.303      72.429
  H     -185.943     -86.261      71.187
  H     -185.808     -84.483      71.014
  P     -184.042     -85.578      69.091
  C     -183.675     -88.127      68.910
  O     -184.536     -87.033      68.621
  C     -183.409     -88.956      67.648
  O     -184.612     -89.700      67.320
  C     -183.032     -88.113      66.426
  O     -182.051     -88.810      65.660
  C     -184.330     -88.026      65.643
  O     -184.108     -87.816      64.249
  C     -184.981     -89.369      65.963
  N     -188.839     -90.101      62.781
  C     -187.489     -90.343      62.616
  N     -187.104     -90.837      61.419
  N     -186.592     -90.119      63.544
  C     -187.125     -89.645      64.699
  C     -188.441     -89.364      64.985
  C     -189.415     -89.596      63.940
  O     -190.626     -89.385      64.024
  N     -188.579     -88.879      66.260
  C     -187.349     -88.865      66.743
  N     -186.428     -89.311      65.830
  O     -182.752     -85.130      68.477
  O     -185.254     -84.629      68.666
  H     -184.992     -87.758      63.825
  H     -184.930     -83.768      68.346
  H     -189.483     -90.282      62.031
  H     -187.071     -88.544      67.738
  H     -184.633     -90.171      65.305
  H     -184.937     -87.192      66.022
  H     -187.742     -91.056      60.670
  H     -182.649     -87.130      66.704
  H     -186.124     -91.052      61.284
  H     -182.630     -89.693      67.872
  H     -184.159     -88.754      69.666
  H     -182.731     -87.748      69.316
  P     -180.499     -88.469      65.881
  C     -180.266     -87.185      63.666
  O     -180.147     -87.120      65.082
  O     -179.554     -89.600      65.655
  O     -180.459     -87.987      67.414
  H     -179.610     -88.266      67.813
  H     -180.009     -86.237      63.243
  H     -181.274     -87.431      63.404
  H     -179.605     -87.936      63.287

 6  7  8  9  10  11  12  13  14  15  26  29  33  34 0
 6-311+G(2d,p)
 ****
 36  38  39  40  41 0
 6-311+G(2d,p)
 ****
 1  2  3  4  5  16  17  18  19  20  21  22  23  24  25 0
 3-21G
 ****
 27  28  30  31  32  35  37  42  43  44  45  46  47 0
 3-21G
 ****
 48  49 0
 3-21G
 ****


