%nproc=1
%NoSave
%Mem=1900MB
#P OB98/GEN NMR

erre ene a

0 1
  C      163.835      54.097      45.048
  O      162.953      54.442      46.096
  H      163.280      54.100      44.106
  H      164.243      53.096      45.213
  H      164.649      54.824      44.980
  P      163.585      54.536      47.568
  C      163.283      51.977      47.911
  O      163.002      53.288      48.389
  C      161.980      51.202      47.735
  O      162.264      49.911      47.149
  C      161.246      50.908      49.039
  O      160.515      52.030      49.501
  C      160.363      49.738      48.623
  O      159.162      50.186      47.981
  C      161.249      48.994      47.615
  N      160.392      44.227      49.197
  C      159.593      45.138      48.600
  N      159.905      46.386      48.191
  C      161.197      46.656      48.447
  C      162.127      45.832      49.055
  C      161.682      44.557      49.439
  N      162.485      43.643      50.078
  N      163.338      46.482      49.186
  C      163.144      47.674      48.657
  N      161.868      47.820      48.194
  O      162.825      55.796      48.202
  O      165.068      54.695      47.616
  H      158.627      50.627      48.669
  H      163.366      56.598      48.083
  H      158.566      44.823      48.432
  H      163.888      48.459      48.596
  H      160.685      48.663      46.734
  H      160.067      49.139      49.484
  H      161.953      50.564      49.803
  H      161.335      51.756      47.042
  H      163.916      51.456      48.637
  H      163.818      52.054      46.960
  H      162.091      42.755      50.346
  H      163.416      43.919      50.358
  P      160.861      52.625      50.945
  C      159.312      51.199      52.470
  O      159.557      52.458      51.866
  O      160.941      54.201      50.683
  O      162.116      52.095      51.554
  H      161.871      54.487      50.607
  H      158.412      51.249      53.047
  H      160.132      50.944      53.109
  H      159.207      50.453      51.710

 6  7  8  9  10  11  12  13  14  15  25  28  32  33  34  35 0
 6-311+G(2d,p)
 ****
 36  37  40 0
 6-311+G(2d,p)
 ****
 1  2  3  4  5  16  17  18  19  20  21  22  23  24 0
 3-21G
 ****
 26  27  29  30  31  38  39 41  42  43  44  45  46  47  48 0
 3-21G
 ****


