%nproc=1
%NoSave
%Mem=1900MB
#P OB98/GEN NMR

erre ene a

0 1
  C       51.448    -495.594    -157.618
  O       51.847    -495.430    -158.963
  H       50.662    -496.352    -157.572
  H       51.055    -494.654    -157.225
  H       52.293    -495.924    -157.007
  P       53.078    -494.443    -159.245
  C       51.942    -492.796    -160.913
  O       52.858    -493.861    -160.728
  C       50.944    -493.156    -162.014
  O       51.642    -493.164    -163.288
  C       50.310    -494.539    -161.829
  O       48.947    -494.490    -162.263
  C       51.116    -495.420    -162.768
  O       50.431    -496.594    -163.183
  C       51.398    -494.441    -163.915
  N       52.539    -494.845    -164.730
  C       52.283    -495.633    -165.848
  O       51.160    -495.950    -166.238
  N       53.391    -496.069    -166.532
  C       54.689    -495.819    -166.203
  O       55.639    -496.256    -166.846
  C       54.899    -494.991    -165.008
  C       53.832    -494.549    -164.336
  O       54.317    -495.438    -159.424
  O       53.323    -493.401    -158.205
  H       54.754    -495.596    -158.565
  H       49.667    -496.317    -163.734
  H       53.219    -496.640    -167.346
  H       55.916    -494.776    -164.713
  H       53.949    -493.945    -163.445
  H       50.511    -494.331    -164.551
  H       52.049    -495.727    -162.285
  H       50.357    -494.895    -160.799
  H       50.177    -492.374    -162.070
  H       52.492    -491.896    -161.207
  H       51.414    -492.602    -159.972
  P       47.810    -494.570    -161.131
  C       46.695    -496.861    -161.712
  O       46.622    -495.448    -161.763
  O       47.248    -493.074    -161.141
  O       48.331    -495.046    -159.814
  H       47.220    -492.675    -162.027
  H       45.827    -497.280    -162.176
  H       46.743    -497.179    -160.691
  H       47.571    -497.192    -162.230

 6  7  8  9  10  11  12  13  14  15  16  27  31  32  33  34  35 0
 6-311+G(2d,p)
 ****
 36  37 0
 6-311+G(2d,p)
 ****
 1  2  3  4  5  17  18  19  20  21  22  23  24  25 0
 3-21G
 ****
 26  28  29  30  38  39  40  41  42  43  44  45 0
 3-21G
 ****


