%nproc=1
%NoSave
%Mem=1900MB
#P OB98/GEN NMR

erre ene a

0 1
  C      312.367    -111.791    -288.665
  O      311.588    -112.568    -287.775
  H      313.363    -112.238    -288.736
  H      312.469    -110.766    -288.302
  H      311.911    -111.792    -289.658
  P      310.182    -111.970    -287.284
  C      311.378    -111.458    -285.055
  O      310.231    -112.031    -285.677
  C      311.095    -111.088    -283.600
  O      310.058    -110.086    -283.523
  C      310.581    -112.243    -282.754
  O      311.518    -113.273    -282.533
  C      309.982    -111.514    -281.561
  O      310.963    -111.158    -280.589
  C      309.418    -110.238    -282.235
  N      307.966    -110.271    -282.358
  C      307.250    -109.925    -281.217
  O      307.779    -109.627    -280.145
  N      305.887    -109.966    -281.333
  C      305.189    -110.356    -282.438
  O      303.965    -110.391    -282.472
  C      306.000    -110.746    -283.604
  C      307.330    -110.688    -283.510
  O      308.963    -112.609    -287.879
  O      310.305    -110.404    -287.588
  H      310.496    -110.697    -279.867
  H      309.418    -109.965    -287.559
  H      305.350    -109.705    -280.520
  H      305.481    -111.071    -284.493
  H      307.951    -110.967    -284.357
  H      309.687    -109.349    -281.648
  H      309.223    -112.111    -281.051
  H      309.742    -112.710    -283.284
  H      312.007    -110.655    -283.175
  H      311.643    -110.553    -285.613
  H      312.214    -112.165    -285.110
  P      311.369    -114.746    -283.121
  C      311.026    -115.883    -280.792
  O      311.794    -115.795    -281.987
  O      311.872    -114.969    -284.510
  O      309.763    -114.922    -283.155
  H      309.549    -115.477    -283.933
  H      311.448    -116.628    -280.151
  H      310.019    -116.150    -281.034
  H      311.034    -114.937    -280.292

 6  7  8  9  10  11  12  13  14  15  16  26  31  32  33  34  35 0
 6-311+G(2d,p)
 ****
 36  37 0
 6-311+G(2d,p)
 ****
 1  2  3  4  5  17  18  19  20  21  22  23  24  25 0
 3-21G
 ****
 27  28  29  30  38  39  40  41  42  43  44  45 0
 3-21G
 ****


