%nproc=1
%NoSave
%Mem=1900MB
#P OB98/GEN NMR

erre ene a

0 1
  C     -281.257     -39.433     -37.451
  O     -282.583     -38.954     -37.572
  H     -281.262     -40.510     -37.260
  H     -280.730     -39.243     -38.388
  H     -280.738     -38.912     -36.641
  P     -283.522     -39.112     -36.281
  C     -284.516     -41.383     -37.051
  O     -284.766     -40.019     -36.741
  C     -285.833     -42.146     -37.151
  O     -285.583     -43.520     -37.506
  C     -286.645     -42.194     -35.861
  O     -287.373     -40.994     -35.649
  C     -287.571     -43.363     -36.151
  O     -288.650     -42.931     -37.002
  C     -286.648     -44.322     -36.922
  N     -287.489     -48.738     -34.475
  C     -288.266     -47.998     -35.297
  N     -287.965     -46.843     -35.927
  C     -286.705     -46.472     -35.655
  C     -285.784     -47.131     -34.857
  C     -286.220     -48.317     -34.243
  N     -285.436     -49.030     -33.350
  N     -284.590     -46.434     -34.803
  C     -284.798     -45.364     -35.542
  N     -286.056     -45.347     -36.082
  O     -284.158     -37.647     -36.124
  O     -282.826     -39.549     -35.037
  H     -289.246     -43.693     -37.108
  H     -283.648     -37.148     -35.459
  H     -289.269     -48.381     -35.466
  H     -284.074     -44.577     -35.706
  H     -287.166     -44.823     -37.747
  H     -288.020     -43.790     -35.250
  H     -286.014     -42.443     -34.997
  H     -286.422     -41.699     -37.964
  H     -283.899     -41.829     -36.263
  H     -285.974     -49.540     -32.654
  H     -284.619     -48.531     -33.016
  H     -283.975     -41.434     -38.000
  P     -287.252     -40.291     -34.212
  C     -289.012     -41.630     -32.870
  O     -288.698     -40.410     -33.524
  O     -287.131     -38.737     -34.583
  O     -286.099     -40.739     -33.378
  H     -286.318     -38.368     -34.190
  H     -289.998     -41.571     -32.460
  H     -288.308     -41.804     -32.083
  H     -288.966     -42.434     -33.574

 6  7  8  9  10  11  12  13  14  15  25  28  32  33  34  35 0
 6-311+G(2d,p)
 ****
 36  39  40 0
 6-311+G(2d,p)
 ****
 1  2  3  4  5  16  17  18  19  20  21  22  23  24 0
 3-21G
 ****
 26  27  29  30  31  37  38  41  42  43  44  45  46  47  48 0
 3-21G
 ****


