%nproc=1
%NoSave
%Mem=1900MB
#P OB98/GEN NMR

erre ene a

0 1
  C      133.863      23.068     -54.895
  O      135.162      22.669     -54.510
  H      133.859      24.153     -55.037
  H      133.136      22.813     -54.120
  H      133.583      22.594     -55.841
  P      135.425      21.124     -54.174
  C      137.308      19.425     -54.656
  O      136.928      20.797     -54.637
  C      138.609      19.249     -55.450
  O      138.291      19.398     -56.855
  C      139.670      20.297     -55.080
  O      140.928      19.723     -54.726
  C      139.640      21.256     -56.265
  O      140.847      21.957     -56.485
  C      139.199      20.360     -57.427
  N      138.561      21.084     -58.524
  C      139.387      21.578     -59.529
  O      140.610      21.435     -59.578
  N      138.752      22.269     -60.531
  C      137.414      22.510     -60.618
  O      136.902      23.130     -61.545
  C      136.594      21.981     -59.518
  C      137.196      21.304     -58.535
  O      134.394      20.168     -54.674
  O      135.529      21.089     -52.575
  H      141.030      22.496     -55.688
  H      134.696      20.746     -52.200
  H      139.340      22.623     -61.270
  H      135.530      22.163     -59.549
  H      136.623      20.898     -57.706
  H      140.052      19.819     -57.839
  H      138.863      22.008     -56.077
  H      139.381      20.843     -54.174
  H      138.979      18.227     -55.301
  H      136.497      18.856     -55.123
  H      137.449      19.068     -53.630
  P      141.330      19.249     -53.256
  C      143.229      17.673     -52.369
  O      142.812      18.649     -53.313
  O      140.301      18.448     -52.532
  O      141.515      20.641     -52.457
  H      141.244      20.470     -51.532
  H      144.243      17.396     -52.567
  H      142.602      16.810     -52.448
  H      143.156      18.078     -51.381

 6  7  8  9  10  11  12  13  14  15  16  26  31  32  33  34  35 0
 6-311+G(2d,p)
 ****
 36  37 0
 6-311+G(2d,p)
 ****
 1  2  3  4  5  17  18  19  20  21  22  23  24  25 0
 3-21G
 ****
 27  28  29  30  38  39  40  41  42  43  44  45 0
 3-21G
 ****


