%nproc=1
%NoSave
%Mem=1900MB
#P OB98/GEN NMR

erre ene a

0 1
  C     -668.650     -45.049    -318.608
  O     -669.404     -46.055    -319.246
  P     -668.836     -46.766    -320.570
  C     -669.649     -49.081    -319.800
  O     -669.684     -48.102    -320.835
  C     -670.656     -50.202    -320.080
  O     -672.014     -49.714    -319.956
  C     -670.569     -50.762    -321.486
  O     -669.423     -51.581    -321.672
  C     -671.910     -51.493    -321.587
  O     -671.836     -52.772    -320.952
  C     -672.833     -50.541    -320.804
  N     -673.689     -49.743    -321.681
  C     -674.953     -50.261    -321.966
  O     -675.274     -51.380    -321.553
  N     -675.815     -49.507    -322.709
  C     -675.414     -48.400    -323.243
  N     -676.334     -47.665    -323.925
  C     -674.036     -47.888    -323.105
  C     -673.234     -48.598    -322.297
  O     -667.355     -46.954    -320.604
  O     -669.307     -45.806    -321.758
  H     -668.539     -45.605    -322.339
  H     -671.115     -53.262    -321.387
  H     -673.721     -46.994    -323.619
  H     -672.206     -48.296    -322.110
  H     -673.476     -51.123    -320.122
  H     -672.210     -51.667    -322.627
  H     -670.545     -49.939    -322.229
  H     -670.506     -50.994    -319.333
  H     -677.271     -48.031    -323.986
  H     -669.891     -48.602    -318.846
  H     -676.226     -46.665    -324.092
  H     -668.638     -49.488    -319.728
  P     -668.414     -51.170    -322.841
  C     -666.298     -52.515    -322.187
  O     -667.401     -52.400    -323.057
  O     -667.491     -50.045    -322.160
  O     -669.078     -50.659    -324.088
  H     -667.273     -49.356    -322.820
  H     -665.929     -53.547    -322.218
  H     -666.573     -52.280    -321.154
  H     -665.501     -51.847    -322.506
  H     -669.182     -44.694    -317.750
  H     -668.489     -44.239    -319.288
  H     -667.707     -45.450    -318.302

 3  4  5  6  7  8  9  10  11  12  13  24  27  28  29  30  32 0
 6-311+G(2d,p)
 ****
 34  35 0
 6-311+G(2d,p)
 ****
 1  2  14  15  16  17  18  19  20  21  22  23  25  26 0
 3-21G
 ****
 31  33  36  37  38  39  40  41  42  43  44  45  46 0
 3-21G
 ****


