%nproc=1
%NoSave
%Mem=1900MB
#P OB98/GEN NMR

erre ene a

0 1
  C      864.248      16.688     852.474
  O      865.002      17.723     851.850
  P      866.575      17.814     852.196
  C      867.553      16.663     850.056
  O      867.257      16.565     851.445
  C      868.066      15.307     849.529
  O      869.115      14.804     850.405
  C      866.986      14.223     849.398
  O      867.301      13.478     848.206
  C      867.212      13.389     850.641
  O      866.695      12.064     850.482
  C      868.742      13.447     850.754
  N      869.238      13.100     852.084
  C      869.626      11.780     852.274
  O      869.511      10.907     851.413
  N      870.119      11.480     853.513
  C      870.177      12.317     854.590
  O      870.626      12.015     855.683
  C      869.640      13.684     854.359
  C      869.187      13.992     853.142
  O      866.565      17.391     853.732
  O      867.163      19.149     851.880
  H      865.919      16.709     853.958
  H      867.241      11.587     849.810
  H      870.443      10.537     853.660
  H      869.601      14.362     855.197
  H      868.759      14.974     852.940
  H      869.217      12.786     850.025
  H      866.735      13.856     851.508
  H      865.984      14.633     849.337
  H      868.514      15.494     848.536
  H      868.327      17.420     849.884
  H      866.648      16.990     849.526
  P      866.586      13.903     846.837
  C      868.747      14.981     845.824
  O      867.396      15.133     846.228
  O      865.251      14.592     847.403
  O      866.281      12.767     845.901
  H      865.437      15.216     848.128
  H      869.027      15.855     845.231
  H      868.860      14.086     845.198
  H      869.394      14.909     846.693
  H      863.228      16.748     852.155
  H      864.297      16.802     853.537
  H      864.653      15.736     852.199

 3  4  5  6  7  8  9  10  11  12  13  24  28  29  30  31  32 0
 6-311+G(2d,p)
 ****
 33  34 0
 6-311+G(2d,p)
 ****
 1  2  14  15  16  17  18  19  20  21  22  23  25  26  27 0
 3-21G
 ****
 35  36  37  38  39  40  41  42  43  44  45 0
 3-21G
 ****


