%nproc=1
%NoSave
%Mem=1900MB
#P OB98/GEN NMR

erre ene a

0 1
  C      -18.069     -23.621      10.114
  O      -19.359     -23.246       9.616
  P      -20.123     -24.273       8.651
  C      -21.377     -26.005      10.134
  O      -21.443     -24.792       9.398
  C      -22.784     -26.499      10.482
  O      -22.755     -27.797      11.109
  C      -23.525     -25.597      11.457
  O      -24.118     -24.489      10.795
  C      -24.600     -26.540      11.973
  O      -25.674     -26.626      11.017
  C      -23.851     -27.875      12.050
  N      -22.572     -31.600      15.324
  C      -23.117     -31.633      14.088
  N      -23.445     -30.599      13.286
  C      -23.141     -29.430      13.872
  C      -22.585     -29.239      15.125
  C      -22.294     -30.393      15.870
  N      -21.737     -30.352      17.127
  N      -22.428     -27.895      15.392
  C      -22.869     -27.285      14.310
  N      -23.319     -28.171      13.367
  O      -19.166     -25.557       8.662
  O      -20.333     -23.760       7.266
  H      -25.333     -27.122      10.249
  H      -19.188     -25.992       7.790
  H      -23.316     -32.624      13.689
  H      -22.880     -26.214      14.163
  H      -24.480     -28.723      11.756
  H      -25.040     -26.201      12.915
  H      -22.869     -25.285      12.280
  H      -23.355     -26.579       9.548
  H      -20.794     -25.859      11.047
  H      -21.531     -31.222      17.589
  H      -21.507     -29.455      17.530
  H      -20.836     -26.751       9.541
  P      -23.957     -23.050      11.485
  C      -21.791     -22.223      10.315
  O      -23.198     -22.137      10.411
  O      -22.857     -23.316      12.617
  O      -25.219     -22.492      12.049
  H      -23.004     -22.716      13.374
  H      -21.477     -21.788       9.363
  H      -21.455     -23.262      10.352
  H      -21.330     -21.658      11.130
  H      -17.687     -22.841      10.739
  H      -17.402     -23.778       9.293
  H      -18.155     -24.524      10.682

 3  4  5  6  7  8  9  10  11  12  22  25  29  30  31  32 0
 6-311+G(2d,p)
 ****
 33  36  37 0
 6-311+G(2d,p)
 ****
 1  2  13  14  15  16  17  18  19  20  21  23  24  26 0
 3-21G
 ****
 27  28  34  35  38  39  40  41  42  43  44  45  46  47  48 0
 3-21G
 ****


