%nproc=1
%NoSave
%Mem=1900MB
#P OB98/GEN NMR

erre ene a

0 1
  C       35.749    -152.546     543.972
  O       35.788    -153.785     543.259
  P       34.611    -154.837     543.568
  C       33.221    -154.480     541.405
  O       34.017    -155.372     542.173
  C       33.019    -154.987     539.967
  O       34.296    -155.283     539.334
  C       32.162    -156.247     539.882
  O       31.414    -156.183     538.654
  C       33.196    -157.359     539.756
  O       32.623    -158.541     539.190
  C       34.259    -156.663     538.884
  N       35.578    -157.295     538.962
  C       35.921    -158.170     537.933
  O       35.106    -158.439     537.041
  N       37.168    -158.759     537.960
  C       37.966    -158.539     538.947
  N       39.186    -159.155     538.921
  C       37.617    -157.671     540.095
  C       36.419    -157.088     540.032
  O       33.434    -153.907     544.147
  O       34.998    -155.903     544.542
  H       32.343    -158.325     538.274
  H       33.101    -154.288     544.977
  H       38.308    -157.535     540.906
  H       36.070    -156.424     540.822
  H       33.952    -156.649     537.833
  H       33.601    -157.611     540.742
  H       31.476    -156.374     540.726
  H       32.559    -154.178     539.386
  H       39.388    -159.740     538.113
  H       33.685    -153.486     541.373
  H       39.882    -159.051     539.635
  H       32.251    -154.348     541.908
  P       29.824    -156.035     538.738
  C       29.858    -153.799     537.456
  O       29.421    -155.157     537.449
  O       29.664    -154.960     539.927
  O       29.008    -157.268     538.998
  H       28.721    -154.841     540.129
  H       29.630    -153.354     536.482
  H       30.942    -153.750     537.627
  H       29.334    -153.241     538.225
  H       36.580    -151.939     543.679
  H       35.801    -152.738     545.023
  H       34.837    -152.034     543.747

 3  4  5  6  7  8  9  10  11  12  13  21  23  27  28  29  30  32 0
 6-311+G(2d,p)
 ****
 34  35 0
 6-311+G(2d,p)
 ****
 1  2  14  15  16  17  18  19  20  22  24  25  26 0
 3-21G
 ****
 31  33  36  37  38  39  40  41  42  43  44  45  46 0
 3-21G
 ****


