%nproc=1
%NoSave
%Mem=1900MB
#P OB98/GEN NMR

erre ene a

0 1
  C      110.294    -462.994     517.375
  O      109.004    -463.486     517.768
  P      108.936    -465.072     518.109
  C      106.839    -465.463     516.634
  O      107.409    -465.527     517.927
  C      105.359    -465.047     516.703
  O      104.722    -465.618     517.876
  C      105.154    -463.530     516.759
  O      103.953    -463.239     516.022
  C      104.942    -463.294     518.251
  O      104.374    -462.028     518.549
  C      104.092    -464.513     518.590
  N      100.955    -465.800     522.399
  C      100.743    -465.586     521.088
  N      101.636    -465.233     520.134
  C      102.863    -465.130     520.653
  C      103.239    -465.326     521.975
  C      102.231    -465.685     522.884
  N      102.427    -465.885     524.225
  N      104.604    -465.100     522.135
  C      105.024    -464.718     520.941
  N      104.024    -464.787     520.009
  O      109.192    -465.127     519.685
  O      109.931    -465.879     517.341
  H      104.419    -461.876     519.510
  H      110.117    -465.364     519.880
  H       99.702    -465.684     520.757
  H      106.017    -464.363     520.702
  H      103.078    -464.420     518.218
  H      105.922    -463.338     518.750
  H      105.979    -462.959     516.336
  H      104.852    -465.463     515.816
  H      106.911    -466.443     516.139
  H      101.633    -466.139     524.792
  H      103.362    -465.799     524.619
  H      107.416    -464.779     516.013
  P      103.985    -462.069     514.925
  C      101.706    -460.906     515.164
  O      102.450    -461.914     514.466
  O      104.572    -462.887     513.647
  O      104.745    -460.845     515.270
  H      104.097    -463.720     513.516
  H      100.718    -460.831     514.722
  H      102.216    -459.942     515.092
  H      101.593    -461.205     516.220
  H      110.230    -461.945     517.174
  H      110.618    -463.507     516.493
  H      110.996    -463.164     518.164

 3  4  5  6  7  8  9  10  11  12  22  25  29  30  31  32 0
 6-311+G(2d,p)
 ****
 33  36  37 0
 6-311+G(2d,p)
 ****
 1  2  13  14  15  16  17  18  19  20  21  23  24  26 0
 3-21G
 ****
 27  28  34  35  38  39  40  41  42  43  44  45  46  47  48 0
 3-21G
 ****


