%nproc=1
%NoSave
%Mem=1900MB
#P OB98/GEN NMR

erre ene a

0 1
  C       69.008      66.991     797.032
  O       69.197      68.385     797.187
  P       69.987      68.980     798.450
  C       69.491      69.136     800.988
  O       68.995      68.787     799.704
  C       68.437      69.933     801.742
  O       67.244      69.155     801.910
  C       68.852      70.377     803.146
  O       69.753      71.470     803.095
  C       67.499      70.673     803.772
  O       67.035      71.970     803.368
  C       66.612      69.582     803.149
  N       66.390      68.449     804.043
  C       65.538      68.649     805.113
  O       64.992      69.737     805.308
  N       65.282      67.600     805.982
  C       65.852      66.458     805.783
  N       65.520      65.444     806.620
  C       66.816      66.200     804.694
  C       67.040      67.234     803.868
  O       70.508      70.362     798.283
  O       71.139      67.903     798.759
  H       66.909      71.949     802.411
  H       71.972      68.065     798.250
  H       67.279      65.228     804.583
  H       67.694      67.113     803.021
  H       65.641      69.979     802.865
  H       67.513      70.651     804.863
  H       69.325      69.540     803.668
  H       68.175      70.823     801.131
  H       64.733      65.599     807.249
  H       70.387      69.749     800.867
  H       65.691      64.467     806.377
  H       69.745      68.217     801.531
  P       70.798      71.644     804.310
  C       70.525      72.162     806.833
  O       69.933      72.218     805.538
  O       71.716      72.858     803.836
  O       71.592      70.408     804.608
  H       72.571      72.528     803.506
  H       69.934      72.814     807.494
  H       71.559      72.540     806.803
  H       70.493      71.139     807.213
  H       68.461      66.803     796.132
  H       68.460      66.610     797.868
  H       69.960      66.506     796.979

 3  4  5  6  7  8  9  10  11  12  13  23  27  28  29  30  32 0
 6-311+G(2d,p)
 ****
 34  35 0
 6-311+G(2d,p)
 ****
 1  2  14  15  16  17  18  19  20  21  22  24  25  26 0
 3-21G
 ****
 31  33  36  37  38  39  40  41  42  43  44  45  46 0
 3-21G
 ****


