%nproc=1
%NoSave
%Mem=1900MB
#P OB98/GEN NMR

erre ene a

0 1
  C      320.132       9.369    -100.032
  O      318.751       9.677    -100.135
  P      318.012      10.217     -98.815
  C      318.418      12.250     -97.251
  O      318.980      11.327     -98.176
  C      319.345      12.472     -96.054
  O      319.377      11.265     -95.255
  C      320.786      12.827     -96.434
  O      321.268      13.775     -95.483
  C      321.532      11.519     -96.251
  O      322.921      11.734     -96.014
  C      320.760      10.899     -95.075
  N      320.925       9.450     -95.010
  C      322.099       8.973     -94.422
  O      322.971       9.762     -94.059
  N      322.278       7.618     -94.308
  C      321.413       6.808     -94.833
  N      321.633       5.474     -94.691
  C      320.221       7.272     -95.573
  C      320.031       8.590     -95.605
  O      318.146       8.984     -97.803
  O      316.594      10.630     -99.020
  H      323.338      10.862     -95.836
  H      317.377       8.942     -97.203
  H      319.550       6.554     -96.024
  H      319.172       9.019     -96.102
  H      321.097      11.328     -94.122
  H      321.426      10.899     -97.149
  H      320.867      13.240     -97.444
  H      318.913      13.264     -95.429
  H      322.464       5.180     -94.192
  H      317.472      11.851     -96.879
  H      321.013       4.769     -95.068
  H      318.212      13.196     -97.760
  P      322.299      14.890     -96.001
  C      322.028      17.013     -97.419
  O      321.462      15.771     -97.050
  O      323.234      14.030     -96.980
  O      323.110      15.627     -94.992
  H      323.954      14.588     -97.322
  H      321.432      17.439     -98.231
  H      323.055      16.879     -97.768
  H      322.004      17.701     -96.569
  H      320.492       9.023    -100.978
  H      320.273       8.605     -99.296
  H      320.673      10.246     -99.744

 3  4  5  6  7  8  9  10  11  12  13  21  23  27  28  29  30  32 0
 6-311+G(2d,p)
 ****
 34  35 0
 6-311+G(2d,p)
 ****
 1  2  14  15  16  17  18  19  20  22  24  25  26 0
 3-21G
 ****
 31  33  36  37  38  39  40  41  42  43  44  45  46 0
 3-21G
 ****


