%nproc=1
%NoSave
%Mem=1900MB
#P OB98/GEN NMR

erre ene a

0 1
  C     -284.106     487.854     564.415
  O     -283.842     488.611     565.578
  H     -284.848     488.387     563.813
  H     -284.515     486.876     564.685
  H     -283.201     487.725     563.819
  P     -282.669     488.138     566.558
  C     -280.929     489.295     568.069
  O     -281.917     489.463     567.058
  C     -279.537     489.520     567.478
  O     -279.158     488.393     566.660
  C     -279.451     490.740     566.567
  O     -279.426     491.944     567.307
  C     -278.173     490.427     565.801
  O     -277.014     490.798     566.560
  C     -278.260     488.894     565.644
  N     -278.700     488.502     564.305
  C     -277.719     488.452     563.325
  O     -276.536     488.708     563.530
  N     -278.158     488.158     562.059
  C     -279.466     488.053     561.674
  O     -279.818     488.039     560.498
  C     -280.455     488.048     562.764
  C     -280.034     488.281     564.008
  O     -281.773     487.066     566.026
  O     -283.444     487.651     567.872
  H     -283.486     486.676     567.875
  H     -277.146     491.734     566.803
  H     -277.455     488.166     561.330
  H     -281.496     487.892     562.509
  H     -280.745     488.316     564.827
  H     -277.277     488.432     565.836
  H     -278.139     490.963     564.854
  H     -280.293     490.736     565.868
  H     -278.822     489.596     568.308
  H     -280.996     488.266     568.455
  H     -281.130     489.992     568.887
  P     -279.301     493.352     566.557
  C     -279.706     495.775     567.314
  O     -280.176     494.432     567.354
  O     -279.545     493.304     565.083
  O     -277.798     493.824     566.861
  H     -277.370     494.079     566.024
  H     -280.366     496.401     567.877
  H     -279.675     496.112     566.299
  H     -278.724     495.822     567.736

 6  7  8  9  10  11  12  13  14  15  16  27  31  32  33  34  35 0
 6-311+G(2d,p)
 ****
 36  37 0
 6-311+G(2d,p)
 ****
 1  2  3  4  5  17  18  19  20  21  22  23  24  25 0
 3-21G
 ****
 26  28  29  30  38  39  40  41  42  43  44  45 0
 3-21G
 ****


