%nproc=1
%NoSave
%Mem=1900MB
#P OB98/GEN NMR

erre ene a

0 1
  C      220.525       1.740      48.179
  O      220.632       0.938      47.011
  P      219.281       0.496      46.267
  C      219.976      -2.000      46.345
  O      219.584      -0.901      45.535
  C      221.157      -2.749      45.728
  O      220.772      -3.235      44.413
  C      222.421      -1.903      45.545
  O      223.544      -2.774      45.723
  C      222.345      -1.481      44.091
  O      223.616      -1.097      43.573
  C      221.751      -2.743      43.472
  N      222.580      -1.894      38.500
  C      223.426      -2.150      39.520
  N      223.129      -2.366      40.818
  C      221.802      -2.296      41.020
  C      220.823      -2.010      40.084
  C      221.255      -1.806      38.763
  N      220.395      -1.556      37.719
  N      219.577      -1.999      40.675
  C      219.799      -2.272      41.944
  N      221.125      -2.483      42.194
  O      219.191       1.540      45.057
  O      218.052       0.530      47.108
  H      223.891      -0.274      44.018
  H      218.439       2.149      45.198
  H      224.480      -2.192      39.259
  H      219.042      -2.326      42.714
  H      222.504      -3.528      43.327
  H      221.665      -0.628      43.987
  H      222.491      -1.050      46.229
  H      221.370      -3.629      46.348
  H      219.132      -2.690      46.433
  H      220.767      -1.558      36.783
  H      219.399      -1.676      37.868
  H      220.236      -1.643      47.346
  P      223.883      -3.229      47.223
  C      225.814      -1.547      47.636
  O      225.430      -2.898      47.465
  O      223.842      -4.828      47.143
  O      222.933      -2.704      48.249
  H      223.602      -5.198      48.011
  H      226.657      -1.504      48.329
  H      224.996      -0.937      48.034
  H      226.125      -1.140      46.671
  H      221.503       1.951      48.558
  H      219.961       1.215      48.921
  H      220.031       2.658      47.937

 3  4  5  6  7  8  9  10  11  12  22  25  29  30  31  32 0
 6-311+G(2d,p)
 ****
 33  36  37 0
 6-311+G(2d,p)
 ****
 1  2  13  14  15  16  17  18  19  20  21  23  24  26 0
 3-21G
 ****
 27  28  34  35  38  39  40  41  42  43  44  45  46  47  48 0
 3-21G
 ****


