%nproc=1
%NoSave
%Mem=1900MB
#P OB98/GEN NMR

erre ene a

0 1
  C      850.518     798.217    -393.374
  O      849.699     799.175    -392.694
  P      848.464     798.730    -391.756
  C      850.163     798.891    -389.821
  O      849.043     798.193    -390.364
  C      849.953     799.234    -388.340
  O      848.870     800.167    -388.185
  C      849.615     798.032    -387.458
  O      850.777     797.293    -387.151
  C      848.959     798.731    -386.262
  O      849.958     799.245    -385.368
  C      848.197     799.879    -386.927
  N      843.509     799.850    -384.880
  C      844.710     800.244    -384.397
  N      845.918     800.214    -385.007
  C      845.800     799.740    -386.250
  C      844.645     799.287    -386.882
  C      843.463     799.353    -386.138
  N      842.237     798.927    -386.626
  N      844.935     798.841    -388.155
  C      846.238     799.039    -388.299
  N      846.806     799.580    -387.178
  O      847.496     797.805    -392.422
  O      847.752     800.107    -391.340
  H      849.510     799.819    -384.722
  H      846.803     799.954    -391.179
  H      844.698     800.646    -383.376
  H      846.790     798.803    -389.196
  H      848.237     800.788    -386.339
  H      848.316     798.052    -385.681
  H      848.880     797.397    -387.954
  H      850.859     799.737    -387.986
  H      850.294     799.817    -390.388
  H      841.440     798.990    -386.024
  H      842.192     798.519    -387.543
  H      851.043     798.269    -389.941
  P      851.244     796.098    -388.111
  C      853.491     797.300    -388.396
  O      852.410     796.664    -389.053
  O      850.141     795.378    -388.828
  O      852.035     795.119    -387.124
  H      851.955     794.193    -387.459
  H      853.212     798.327    -388.129
  H      854.346     797.334    -389.084
  H      853.775     796.755    -387.492
  H      851.272     798.727    -393.936
  H      849.912     797.636    -394.037
  H      850.982     797.572    -392.657

 3  4  5  6  7  8  9  10  11  12  22  25  29  30  31  32 0
 6-311+G(2d,p)
 ****
 33  36  37 0
 6-311+G(2d,p)
 ****
 1  2  13  14  15  16  17  18  19  20  21  23  24  26 0
 3-21G
 ****
 27  28  34  35  38  39  40  41  42  43  44  45  46  47  48 0
 3-21G
 ****


