%nproc=1
%NoSave
%Mem=1900MB
#P OB98/GEN NMR

erre ene a

0 1
  C       59.043     171.254     -86.638
  O       59.702     171.533     -85.412
  P       59.440     172.964     -84.734
  C       59.425     175.416     -85.558
  O       59.770     174.068     -85.851
  C       59.136     176.193     -86.838
  O       58.140     175.470     -87.612
  C       58.593     177.615     -86.606
  O       59.239     178.521     -87.512
  C       57.134     177.512     -87.021
  O       56.605     178.766     -87.433
  C       57.234     176.464     -88.130
  N       53.034     177.113     -90.865
  C       54.230     177.807     -90.904
  N       54.288     178.858     -91.752
  N       55.272     177.504     -90.174
  C       55.078     176.409     -89.396
  C       53.947     175.634     -89.278
  C       52.781     176.020     -90.045
  O       51.668     175.500     -89.990
  N       54.140     174.600     -88.396
  C       55.384     174.749     -87.980
  N       55.981     175.861     -88.522
  O       60.655     173.091     -83.699
  O       58.126     173.111     -84.045
  H       56.515     179.316     -86.631
  H       60.306     173.246     -82.798
  H       52.260     177.401     -91.436
  H       55.883     174.099     -87.269
  H       57.688     176.905     -89.031
  H       56.545     177.143     -86.171
  H       53.537     179.124     -92.370
  H       58.710     177.977     -85.580
  H       55.162     179.364     -91.810
  H       60.052     176.222     -87.445
  H       60.259     175.893     -85.032
  H       58.546     175.421     -84.907
  P       59.771     179.894     -86.875
  C       58.626     182.137     -86.192
  O       58.489     180.850     -86.765
  O       60.631     180.546     -88.061
  O       60.565     179.714     -85.623
  H       61.300     181.157     -87.700
  H       59.679     182.404     -86.029
  H       58.103     182.159     -85.236
  H       58.178     182.874     -86.866
  H       59.309     170.272     -86.970
  H       59.339     171.972     -87.374
  H       57.984     171.307     -86.494

 3  4  5  6  7  8  9  10  11  12  23  26  30  31  33  0
 6-311+G(2d,p)
 ****
 35  36  37  38 0
 6-311+G(2d,p)
 ****
 1  2  13  14  15  16  17  18  19  20  21  22  24  25  27  28  29 0
 3-21G
 ****
 32  34  39  40  41  42  43  44  45  46  47  48  49 0
 3-21G
 ****


