%nproc=1
%NoSave
%Mem=1900MB
#P OB98/GEN NMR

erre ene a

0 1
  C      486.300     110.523     806.949
  O      485.913     110.463     808.304
  P      486.655     111.361     809.405
  C      484.708     110.764     810.971
  O      486.120     110.937     810.850
  C      484.308     110.620     812.443
  O      484.942     111.633     813.245
  C      482.815     110.778     812.693
  O      482.077     109.660     812.251
  C      482.806     111.009     814.203
  O      482.903     109.763     814.910
  C      484.083     111.851     814.400
  N      483.797     113.265     814.603
  C      483.996     113.746     815.898
  O      484.312     112.983     816.809
  N      483.819     115.096     816.128
  C      483.363     115.850     815.176
  N      483.258     117.183     815.438
  C      482.987     115.342     813.838
  C      483.247     114.054     813.616
  O      486.649     112.830     809.135
  O      488.152     110.802     809.411
  H      488.772     111.546     809.326
  H      482.207     109.180     814.538
  H      482.553     116.005     813.109
  H      483.033     113.599     812.657
  H      484.650     111.474     815.263
  H      481.888     111.500     814.543
  H      482.455     111.681     812.187
  H      484.653     109.640     812.796
  H      483.540     117.503     816.366
  H      484.411     109.864     810.422
  H      483.237     117.888     814.707
  H      484.200     111.625     810.513
  P      480.572     109.933     811.750
  C      480.441     107.774     810.317
  O      479.921     108.509     811.407
  O      480.786     110.616     810.314
  O      479.763     110.808     812.654
  H      480.105     111.303     810.179
  H      480.147     106.723     810.432
  H      481.535     107.836     810.287
  H      480.024     108.165     809.385
  H      485.692     109.856     806.374
  H      487.327     110.236     806.858
  H      486.175     111.522     806.586

 3  4  5  6  7  8  9  10  11  12  13  24  27  28  29  30  32 0
 6-311+G(2d,p)
 ****
 34  35 0
 6-311+G(2d,p)
 ****
 1  2  14  15  16  17  18  19  20  21  22  23  25  26 0
 3-21G
 ****
 31  33  36  37  38  39  40  41  42  43  44  45  46 0
 3-21G
 ****


