%nproc=1
%NoSave
%Mem=1900MB
#P OB98/GEN NMR

erre ene a

0 1
  C      170.804    -408.563     -72.332
  O      170.030    -409.305     -73.257
  P      170.462    -410.831     -73.544
  C      168.352    -411.229     -75.072
  O      169.767    -411.228     -74.933
  C      167.970    -411.151     -76.552
  O      168.683    -412.150     -77.296
  C      166.491    -411.401     -76.834
  O      165.690    -410.268     -76.519
  C      166.536    -411.754     -78.307
  O      166.607    -410.561     -79.116
  C      167.847    -412.552     -78.417
  N      167.654    -414.002     -78.435
  C      167.231    -414.541     -79.645
  O      167.027    -413.865     -80.655
  N      167.030    -415.897     -79.652
  C      167.138    -416.733     -78.580
  O      166.909    -417.934     -78.628
  C      167.555    -416.095     -77.323
  C      167.789    -414.784     -77.305
  O      169.604    -411.588     -72.427
  O      171.932    -411.051     -73.460
  H      168.796    -411.094     -72.192
  H      165.821    -410.029     -78.887
  H      166.738    -416.314     -80.527
  H      167.654    -416.727     -76.443
  H      168.096    -414.290     -76.384
  H      168.400    -412.256     -79.316
  H      165.637    -412.312     -78.641
  H      166.139    -412.261     -76.255
  H      168.270    -410.160     -76.935
  H      167.936    -410.360     -74.540
  H      167.956    -412.143     -74.615
  P      164.132    -410.552     -76.239
  C      164.091    -408.038     -75.478
  O      163.426    -409.116     -76.133
  O      164.172    -411.088     -74.731
  O      163.506    -411.498     -77.217
  H      164.784    -410.579     -74.165
  H      163.648    -407.104     -75.817
  H      165.159    -408.032     -75.717
  H      163.963    -408.137     -74.396
  H      170.403    -407.575     -72.243
  H      171.815    -408.508     -72.677
  H      170.778    -409.046     -71.377

 3  4  5  6  7  8  9  10  11  12  13  24  28  29  30  31  32 0
 6-311+G(2d,p)
 ****
 33  34 0
 6-311+G(2d,p)
 ****
 1  2  14  15  16  17  18  19  20  21  22  23  25  26  27 0
 3-21G
 ****
 35  36  37  38  39  40  41  42  43  44  45 0
 3-21G
 ****


