%nproc=1
%NoSave
%Mem=1900MB
#P OB98/GEN NMR

erre ene a

0 1
  C     -220.363     273.309      89.352
  O     -220.822     273.571      90.660
  H     -221.115     272.714      88.830
  H     -219.430     272.739      89.394
  H     -220.203     274.236      88.795
  P     -220.074     274.684      91.533
  C     -219.448     276.747      90.112
  O     -220.443     276.111      90.897
  C     -219.551     278.273      90.230
  O     -220.912     278.676      89.929
  C     -219.253     278.746      91.658
  O     -218.728     280.069      91.685
  C     -220.629     278.748      92.305
  O     -220.716     279.612      93.437
  C     -221.514     279.174      91.134
  N     -226.060     279.707      93.384
  C     -224.849     280.288      93.710
  N     -224.852     281.127      94.775
  N     -223.737     280.056      93.066
  C     -223.865     279.144      92.072
  C     -225.005     278.482      91.670
  C     -226.237     278.778      92.367
  O     -227.331     278.271      92.134
  N     -224.743     277.625      90.629
  C     -223.452     277.765      90.406
  N     -222.877     278.693      91.240
  O     -218.533     274.514      91.124
  O     -220.264     274.579      93.016
  H     -220.134     279.250      94.127
  H     -217.955     274.876      91.818
  H     -226.892     279.943      93.891
  H     -222.890     277.231      89.647
  H     -221.557     280.269      91.060
  H     -220.844     277.735      92.654
  H     -225.638     281.176      95.406
  H     -218.573     278.084      92.186
  H     -223.946     281.306      95.212
  H     -218.906     278.752      89.487
  H     -219.604     276.429      89.078
  H     -218.452     276.403      90.408
  P     -217.270     280.302      92.307
  C     -215.164     278.837      91.646
  O     -216.154     279.778      91.291
  O     -217.202     279.262      93.517
  O     -217.009     281.706      92.760
  H     -217.133     279.734      94.368
  H     -214.535     278.645      90.802
  H     -215.632     277.926      91.956
  H     -214.574     279.226      92.449

 6  7  8  9  10  11  12  13  14  15  26  29  33  34 0
 6-311+G(2d,p)
 ****
 36  38  39  40  41 0
 6-311+G(2d,p)
 ****
 1  2  3  4  5  16  17  18  19  20  21  22  23  24  25 0
 3-21G
 ****
 27  28  30  31  32  35  37  42  43  44  45  46  47 0
 3-21G
 ****
 48  49 0
 3-21G
 ****


