%nproc=1
%NoSave
%Mem=1900MB
#P OB98/GEN NMR

erre ene a

0 1
  C      -35.811      -0.327      30.536
  O      -35.871      -1.450      29.679
  H      -34.831      -0.309      31.020
  H      -36.582      -0.381      31.307
  H      -35.930       0.593      29.956
  P      -37.294      -1.844      29.049
  C      -37.895      -3.092      26.869
  O      -37.002      -2.178      27.504
  C      -38.462      -2.495      25.580
  O      -39.305      -1.365      25.884
  C      -37.400      -1.956      24.635
  O      -36.599      -2.953      24.037
  C      -38.197      -1.004      23.755
  O      -38.819      -1.644      22.646
  C      -39.278      -0.491      24.737
  N      -39.057       0.898      25.117
  C      -39.196       1.834      24.098
  O      -39.465       1.537      22.934
  N      -38.972       3.137      24.449
  C      -38.582       3.575      25.680
  O      -38.356       4.755      25.922
  C      -38.426       2.537      26.711
  C      -38.667       1.264      26.388
  O      -38.395      -0.847      29.255
  O      -37.604      -3.281      29.677
  H      -38.106      -1.932      22.044
  H      -38.558      -3.514      29.581
  H      -39.078       3.830      23.727
  H      -38.115       2.848      27.699
  H      -38.557       0.478      27.132
  H      -40.271      -0.558      24.275
  H      -37.566      -0.208      23.352
  H      -36.713      -1.330      25.218
  H      -39.078      -3.256      25.089
  H      -38.716      -3.291      27.565
  H      -37.373      -4.030      26.659
  P      -35.016      -2.823      23.872
  C      -32.959      -4.375      24.206
  O      -34.371      -4.285      24.050
  O      -34.361      -1.665      24.551
  O      -34.883      -2.587      22.280
  H      -34.124      -1.989      22.136
  H      -32.677      -5.402      24.313
  H      -32.661      -3.830      25.078
  H      -32.478      -3.961      23.345

 6  7  8  9  10  11  12  13  14  15  16  26  31  32  33  34  35 0
 6-311+G(2d,p)
 ****
 36  37 0
 6-311+G(2d,p)
 ****
 1  2  3  4  5  17  18  19  20  21  22  23  24  25 0
 3-21G
 ****
 27  28  29  30  38  39  40  41  42  43  44  45 0
 3-21G
 ****


