%nproc=1
%NoSave
%Mem=1900MB
#P OB98/GEN NMR

erre ene a

0 1
  C      221.447    -284.982     137.317
  O      222.218    -283.803     137.215
  H      220.645    -284.941     136.575
  H      221.001    -285.058     138.312
  H      222.066    -285.861     137.118
  P      223.470    -283.674     138.212
  C      221.867    -282.581     139.946
  O      222.861    -283.568     139.692
  C      221.321    -282.748     141.360
  O      220.751    -284.071     141.510
  C      222.381    -282.640     142.446
  O      222.735    -281.297     142.728
  C      221.691    -283.343     143.606
  O      220.803    -282.455     144.299
  C      220.893    -284.445     142.899
  N      222.203    -288.177     146.128
  C      221.484    -287.045     146.299
  N      221.170    -286.107     145.383
  C      221.652    -286.442     144.176
  C      222.398    -287.563     143.847
  C      222.671    -288.463     144.893
  N      223.422    -289.598     144.724
  N      222.747    -287.539     142.512
  C      222.215    -286.432     142.037
  N      221.542    -285.739     143.004
  O      224.018    -282.198     137.916
  O      224.530    -284.708     138.031
  H      220.524    -282.927     145.110
  H      224.790    -282.253     137.325
  H      221.126    -286.863     147.311
  H      222.293    -286.087     141.016
  H      219.880    -284.554     143.311
  H      222.415    -283.715     144.327
  H      223.270    -283.219     142.165
  H      220.524    -282.015     141.517
  H      221.049    -282.699     139.226
  H      222.313    -281.590     139.818
  H      223.638    -290.166     145.529
  H      223.876    -289.765     143.830
  P      224.254    -280.997     143.137
  C      223.849    -280.749     145.703
  O      224.449    -281.491     144.649
  O      224.309    -279.401     143.248
  O      225.271    -281.520     142.177
  H      225.181    -279.076     142.945
  H      224.077    -281.213     146.640
  H      222.788    -280.727     145.564
  H      224.231    -279.749     145.698

 6  7  8  9  10  11  12  13  14  15  25  28  32  33  34  35 0
 6-311+G(2d,p)
 ****
 36  37  40 0
 6-311+G(2d,p)
 ****
 1  2  3  4  5  16  17  18  19  20  21  22  23  24 0
 3-21G
 ****
 26  27  29  30  31  38  39 41  42  43  44  45  46  47  48 0
 3-21G
 ****


