%nproc=1
%NoSave
%Mem=1900MB
#P OB98/GEN NMR

erre ene a

0 1
  C      164.636    -493.802    -299.872
  O      164.733    -495.165    -300.319
  P      166.159    -495.915    -300.257
  C      166.991    -498.397    -300.353
  O      165.929    -497.472    -300.567
  C      166.453    -499.831    -300.368
  O      165.465    -500.008    -299.319
  C      165.742    -500.230    -301.653
  O      166.655    -500.510    -302.698
  C      164.951    -501.445    -301.192
  O      165.772    -502.624    -301.199
  C      164.569    -501.049    -299.753
  N      163.173    -500.646    -299.625
  C      162.237    -501.668    -299.517
  O      162.524    -502.859    -299.583
  N      160.931    -501.270    -299.367
  C      160.475    -499.973    -299.380
  O      159.297    -499.687    -299.255
  C      161.512    -498.941    -299.575
  C      162.787    -499.319    -299.693
  O      166.457    -495.927    -298.681
  O      167.269    -495.253    -301.003
  H      166.414    -502.520    -300.469
  H      167.418    -495.943    -298.536
  H      160.242    -501.987    -299.255
  H      161.191    -497.907    -299.619
  H      163.557    -498.566    -299.838
  H      164.746    -501.898    -299.069
  H      164.084    -501.659    -301.837
  H      165.047    -499.443    -301.952
  H      167.294    -500.509    -300.162
  H      167.457    -498.190    -299.384
  H      167.737    -498.263    -301.143
  P      166.800    -499.398    -303.849
  C      167.581    -499.520    -306.347
  O      167.189    -500.211    -305.171
  O      168.154    -498.667    -303.399
  O      165.610    -498.503    -303.950
  H      168.783    -499.283    -302.973
  H      168.113    -498.599    -306.104
  H      166.682    -499.281    -306.937
  H      168.234    -500.175    -306.937
  H      163.627    -493.462    -299.981
  H      165.286    -493.187    -300.459
  H      164.923    -493.743    -298.843

 3  4  5  6  7  8  9  10  11  12  13  23  28  29  30  31  32 0
 6-311+G(2d,p)
 ****
 33  34 0
 6-311+G(2d,p)
 ****
 1  2  14  15  16  17  18  19  20  21  22  24  25  26 0
 3-21G
 ****
 27  35  36  37  38  39  40  41  42  43  44  45 0
 3-21G
 ****


