%nproc=1
%NoSave
%Mem=1900MB
#P OB98/GEN NMR

erre ene a

0 1
  C     -188.898       4.452      51.363
  O     -190.104       4.390      50.628
  H     -188.771       5.470      51.741
  H     -188.049       4.207      50.720
  H     -188.938       3.763      52.210
  P     -190.456       2.988      49.931
  C     -188.749       3.048      47.972
  O     -190.109       3.150      48.374
  C     -188.487       3.992      46.804
  O     -187.100       3.906      46.404
  C     -189.292       3.670      45.552
  O     -190.631       4.124      45.642
  C     -188.487       4.410      44.496
  O     -188.853       5.797      44.430
  C     -187.037       4.241      45.003
  N     -186.298       3.247      44.233
  C     -185.870       3.653      42.973
  O     -186.091       4.775      42.515
  N     -185.207       2.711      42.233
  C     -184.971       1.422      42.608
  O     -184.437       0.605      41.868
  C     -185.433       1.050      43.958
  C     -186.074       1.963      44.694
  O     -192.055       2.959      49.964
  O     -189.855       1.789      50.585
  H     -192.363       2.369      50.678
  H     -188.541       6.121      43.563
  H     -184.900       2.984      41.313
  H     -185.255       0.035      44.288
  H     -186.441       1.708      45.682
  H     -186.495       5.194      44.931
  H     -188.652       3.992      43.502
  H     -189.250       2.595      45.339
  H     -188.686       5.020      47.138
  H     -188.538       2.020      47.656
  H     -188.106       3.292      48.825
  P     -191.813       3.090      45.316
  C     -191.458       2.963      42.714
  O     -192.265       3.375      43.803
  O     -193.003       3.693      46.198
  O     -191.467       1.670      45.608
  H     -192.992       4.665      46.237
  H     -191.929       3.243      41.795
  H     -191.336       1.900      42.743
  H     -190.500       3.434      42.782

 6  7  8  9  10  11  12  13  14  15  16  27  31  32  33  34  35 0
 6-311+G(2d,p)
 ****
 36  37 0
 6-311+G(2d,p)
 ****
 1  2  3  4  5  17  18  19  20  21  22  23  24  25 0
 3-21G
 ****
 26  28  29  30  38  39  40  41  42  43  44  45 0
 3-21G
 ****


