%nproc=1
%NoSave
%Mem=1900MB
#P OB98/GEN NMR

erre ene a

0 1
  C      -19.188    -155.114      69.634
  O      -20.209    -155.576      70.491
  H      -18.680    -155.978      69.198
  H      -18.462    -154.532      70.209
  H      -19.592    -154.499      68.825
  P      -21.377    -154.568      70.910
  C      -22.512    -153.872      73.121
  O      -21.357    -154.434      72.511
  C      -22.664    -154.319      74.575
  O      -22.942    -155.735      74.636
  C      -21.385    -154.104      75.385
  O      -21.215    -152.803      75.916
  C      -21.547    -155.133      76.500
  O      -22.327    -154.598      77.582
  C      -22.299    -156.270      75.807
  N      -21.346    -161.279      76.115
  C      -22.340    -160.544      76.731
  N      -23.144    -161.221      77.581
  N      -22.511    -159.262      76.541
  C      -21.574    -158.702      75.740
  C      -20.536    -159.326      75.086
  C      -20.388    -160.756      75.260
  O      -19.520    -161.453      74.743
  N      -19.791    -158.431      74.356
  C      -20.332    -157.260      74.631
  N      -21.434    -157.377      75.445
  O      -22.715    -155.413      70.652
  O      -21.406    -153.272      70.159
  H      -22.708    -155.341      78.083
  H      -23.459    -154.811      70.473
  H      -21.279    -162.268      76.277
  H      -19.984    -156.307      74.247
  H      -23.091    -156.677      76.448
  H      -20.581    -155.426      76.923
  H      -22.977    -162.179      77.848
  H      -20.507    -154.378      74.791
  H      -23.701    -160.679      78.244
  H      -23.519    -153.802      75.025
  H      -23.371    -154.207      72.536
  H      -22.482    -152.781      73.057
  P      -19.798    -152.361      76.516
  C      -18.710    -152.514      78.875
  O      -19.694    -152.992      77.985
  O      -20.000    -150.797      76.785
  O      -18.630    -152.626      75.630
  H      -19.643    -150.278      76.040
  H      -18.782    -153.041      79.803
  H      -18.861    -151.469      79.046
  H      -17.740    -152.669      78.451

 6  7  8  9  10  11  12  13  14  15  26  29  33  34 0
 6-311+G(2d,p)
 ****
 36  38  39  40  41 0
 6-311+G(2d,p)
 ****
 1  2  3  4  5  16  17  18  19  20  21  22  23  24  25 0
 3-21G
 ****
 27  28  30  31  32  35  37  42  43  44  45  46  47 0
 3-21G
 ****
 48  49 0
 3-21G
 ****


