%nproc=1
%NoSave
%Mem=1900MB
#P OB98/GEN NMR

erre ene a

0 1
  C      245.378      39.472     433.183
  O      244.191      39.506     433.951
  H      246.107      38.831     433.684
  H      245.785      40.483     433.106
  H      245.182      39.072     432.179
  P      242.862      40.048     433.236
  C      241.831      37.753     432.580
  O      242.454      38.955     432.129
  C      241.681      36.769     431.420
  O      240.741      37.333     430.446
  C      242.995      36.457     430.677
  O      242.984      35.071     430.290
  C      242.882      37.311     429.429
  O      243.687      36.817     428.361
  C      241.385      37.230     429.164
  N      240.815      38.313     424.292
  C      241.091      37.114     424.919
  N      241.302      36.042     424.119
  N      241.159      36.974     426.211
  C      240.897      38.125     426.894
  C      240.619      39.378     426.388
  C      240.574      39.517     424.957
  O      240.355      40.561     424.336
  N      240.484      40.294     427.411
  C      240.700      39.598     428.508
  N      240.954      38.276     428.252
  O      243.414      41.277     432.365
  O      241.770      40.468     434.153
  H      244.630      36.960     428.593
  H      243.301      42.108     432.861
  H      240.805      38.370     423.283
  H      240.701      40.004     429.515
  H      241.088      36.276     428.704
  H      243.194      38.346     429.650
  H      241.257      36.058     423.117
  H      243.894      36.671     431.266
  H      241.469      35.145     424.577
  H      241.226      35.847     431.801
  H      240.841      37.999     432.980
  H      242.437      37.319     433.376
  P      244.061      34.098     430.963
  C      242.579      31.949     431.034
  O      243.260      32.952     431.768
  O      244.690      34.988     432.134
  O      245.101      33.594     430.020
  H      245.636      34.763     432.251
  H      242.103      31.272     431.712
  H      243.279      31.413     430.428
  H      241.841      32.405     430.408

 6  7  8  9  10  11  12  13  14  15  26  29  33  34 0
 6-311+G(2d,p)
 ****
 36  38  39  40  41 0
 6-311+G(2d,p)
 ****
 1  2  3  4  5  16  17  18  19  20  21  22  23  24  25 0
 3-21G
 ****
 27  28  30  31  32  35  37  42  43  44  45  46  47 0
 3-21G
 ****
 48  49 0
 3-21G
 ****


