%nproc=1
%NoSave
%Mem=1900MB
#P OB98/GEN NMR

erre ene a

0 1
  C      227.364    -246.539     212.069
  O      228.680    -247.007     212.373
  P      228.893    -248.534     212.802
  C      231.015    -249.159     211.462
  O      230.455    -248.887     212.741
  C      232.375    -248.467     211.325
  O      232.241    -247.026     211.373
  C      233.329    -248.805     212.465
  O      233.828    -250.125     212.507
  C      234.344    -247.678     212.381
  O      235.343    -247.942     211.397
  C      233.455    -246.489     211.946
  N      233.162    -245.570     213.045
  C      234.053    -244.516     213.214
  O      235.060    -244.363     212.525
  N      233.767    -243.651     214.236
  C      232.723    -243.755     215.107
  O      232.527    -242.966     216.021
  C      231.830    -244.905     214.894
  C      232.085    -245.747     213.891
  O      227.990    -249.523     212.145
  O      228.615    -248.496     214.385
  H      235.913    -248.654     211.743
  H      228.101    -249.294     214.616
  H      234.399    -242.876     214.369
  H      230.993    -245.023     215.571
  H      231.439    -246.599     213.715
  H      233.948    -245.914     211.153
  H      234.862    -247.531     213.332
  H      232.783    -248.668     213.410
  H      232.804    -248.725     210.356
  H      230.334    -248.816     210.679
  H      231.108    -250.244     211.337
  P      233.075    -251.326     213.257
  C      234.072    -252.837     211.399
  O      233.713    -252.711     212.758
  O      231.590    -251.252     213.351
  O      233.687    -251.203     214.739
  H      233.001    -251.475     215.378
  H      234.470    -253.843     211.237
  H      234.844    -252.109     211.139
  H      233.198    -252.700     210.760
  H      227.406    -245.503     211.804
  H      226.735    -246.662     212.926
  H      226.966    -247.101     211.250

 3  4  5  6  7  8  9  10  11  12  13  23  28  29  30  31  32 0
 6-311+G(2d,p)
 ****
 33  34 0
 6-311+G(2d,p)
 ****
 1  2  14  15  16  17  18  19  20  21  22  24  25  26  27 0
 3-21G
 ****
 35  36  37  38  39  40  41  42  43  44  45 0
 3-21G
 ****


