%nproc=1
%NoSave
%Mem=1900MB
#P OB98/GEN NMR

erre ene a

0 1
  C      -77.383     193.385    -278.047
  O      -76.833     194.336    -277.155
  H      -77.266     192.389    -277.613
  H      -76.858     193.417    -279.006
  H      -78.448     193.582    -278.194
  P      -76.873     195.869    -277.624
  C      -78.730     196.376    -275.894
  O      -78.358     196.357    -277.266
  C      -78.867     197.813    -275.397
  O      -79.681     198.577    -276.304
  C      -79.518     197.944    -274.025
  O      -78.559     197.745    -273.000
  C      -79.993     199.389    -274.068
  O      -78.893     200.269    -273.764
  C      -80.414     199.566    -275.537
  N      -84.769     201.959    -276.824
  C      -83.557     202.435    -276.468
  N      -82.461     201.745    -276.085
  C      -82.701     200.423    -276.103
  C      -83.888     199.792    -276.441
  C      -84.958     200.618    -276.822
  N      -86.196     200.130    -277.182
  N      -83.764     198.422    -276.336
  C      -82.507     198.229    -276.001
  N      -81.830     199.408    -275.809
  O      -76.411     196.131    -279.019
  O      -75.995     196.562    -276.477
  H      -78.571     200.022    -272.876
  H      -76.206     196.178    -275.608
  H      -83.453     203.515    -276.490
  H      -82.031     197.258    -275.901
  H      -80.132     200.553    -275.922
  H      -80.777     199.595    -273.337
  H      -80.385     197.283    -273.921
  H      -77.866     198.266    -275.399
  H      -77.982     195.846    -275.292
  H      -86.950     200.792    -277.252
  H      -86.367     199.143    -277.054
  H      -79.684     195.848    -275.801
  P      -78.868     196.786    -271.752
  C      -77.576     194.875    -272.887
  O      -78.822     195.299    -272.352
  O      -80.095     197.140    -270.989
  O      -77.541     196.854    -270.863
  H      -77.725     196.522    -269.964
  H      -77.668     193.874    -273.255
  H      -76.830     194.907    -272.121
  H      -77.292     195.525    -273.688

 6  7  8  9  10  11  12  13  14  15  25  28  32  33  34  35 0
 6-311+G(2d,p)
 ****
 36  39  40 0
 6-311+G(2d,p)
 ****
 1  2  3  4  5  16  17  18  19  20  21  22  23  24 0
 3-21G
 ****
 26  27  29  30  31  37  38  41  42  43  44  45  46  47 0
 3-21G
 ****
 48 0
 3-21G
 ****


