%nproc=1
%NoSave
%Mem=1900MB
#P OB98/GEN NMR

erre ene a

0 1
  C      -63.114     156.079      81.538
  O      -63.527     156.211      80.180
  P      -64.809     157.027      79.696
  C      -66.191     154.894      79.051
  O      -65.610     156.125      78.646
  C      -67.104     154.274      77.978
  O      -68.209     155.177      77.703
  C      -66.345     154.106      76.660
  O      -65.528     152.968      76.451
  C      -67.397     154.317      75.579
  O      -67.979     153.093      75.130
  C      -68.448     155.182      76.281
  N      -70.147     158.424      72.705
  C      -70.304     157.055      72.784
  N      -70.949     156.461      71.761
  N      -69.848     156.331      73.772
  C      -69.147     157.040      74.687
  C      -68.904     158.393      74.705
  C      -69.463     159.195      73.637
  O      -69.363     160.414      73.521
  N      -68.132     158.753      75.780
  C      -67.885     157.617      76.396
  N      -68.487     156.544      75.774
  O      -64.564     158.449      79.318
  O      -65.762     157.026      80.999
  H      -68.178     152.551      75.910
  H      -66.257     157.873      80.983
  H      -70.541     158.937      71.932
  H      -67.286     157.513      77.293
  H      -69.457     154.773      76.135
  H      -66.953     154.793      74.697
  H      -71.218     156.943      70.916
  H      -65.663     154.959      76.572
  H      -70.875     155.441      71.709
  H      -67.556     153.349      78.339
  H      -66.758     155.097      79.963
  H      -65.408     154.182      79.320
  P      -63.926     152.945      76.431
  C      -63.751     153.114      73.879
  O      -63.460     152.337      75.029
  O      -63.545     151.784      77.460
  O      -63.272     154.234      76.811
  H      -62.608     151.854      77.720
  H      -63.676     152.483      72.991
  H      -63.028     153.933      73.799
  H      -64.763     153.530      73.936
  H      -62.227     155.483      81.585
  H      -63.891     155.607      82.103
  H      -62.915     157.048      81.946

 3  4  5  6  7  8  9  10  11  12  23  26  30  31 0
 6-311+G(2d,p)
 ****
 33  35  36  37  38 0
 6-311+G(2d,p)
 ****
 1  2  13  14  15  16  17  18  19  20  21  22  24  25 0
 3-21G
 ****
 27  28  29  32  34  39  40  41  42  43  44  45  46  47  48  49 0
 3-21G
 ****


