%nproc=1
%NoSave
%Mem=1900MB
#P OB98/GEN NMR

erre ene a

0 1
  C      143.907     224.884    -216.775
  O      144.331     225.570    -217.940
  P      143.237     225.934    -219.053
  C      143.753     223.864    -220.544
  O      142.794     224.564    -219.766
  C      143.098     223.287    -221.802
  O      144.112     222.610    -222.607
  C      141.983     222.268    -221.520
  O      140.996     222.407    -222.552
  C      142.705     220.943    -221.677
  O      141.826     219.851    -221.902
  C      143.626     221.274    -222.857
  N      144.724     220.321    -223.010
  C      144.556     219.294    -223.935
  O      143.545     219.148    -224.623
  N      145.576     218.383    -224.006
  C      146.679     218.346    -223.200
  O      147.500     217.436    -223.239
  C      146.803     219.455    -222.242
  C      145.838     220.376    -222.190
  O      144.096     226.686    -220.175
  O      142.103     226.768    -218.562
  H      141.191     219.826    -221.161
  H      143.985     227.654    -220.094
  H      145.476     217.638    -224.679
  H      147.678     219.468    -221.604
  H      145.894     221.195    -221.477
  H      143.047     221.314    -223.787
  H      143.281     220.732    -220.770
  H      141.522     222.386    -220.531
  H      142.708     224.121    -222.407
  H      144.168     223.046    -219.952
  H      144.575     224.537    -220.810
  P      139.482     221.994    -222.204
  C      139.439     220.327    -224.221
  O      139.243     220.542    -222.838
  O      138.675     222.977    -223.180
  O      139.129     222.162    -220.760
  H      139.068     223.029    -224.069
  H      140.252     220.944    -224.613
  H      138.514     220.566    -224.757
  H      139.681     219.275    -224.386
  H      144.747     224.716    -216.135
  H      143.475     223.945    -217.051
  H      143.178     225.474    -216.259

 3  4  5  6  7  8  9  10  11  12  13  23  28  29  30  31  32 0
 6-311+G(2d,p)
 ****
 33  34 0
 6-311+G(2d,p)
 ****
 1  2  14  15  16  17  18  19  20  21  22  24  25  26 0
 3-21G
 ****
 27  35  36  37  38  39  40  41  42  43  44  45 0
 3-21G
 ****


