%nproc=1
%NoSave
%Mem=1900MB
#P OB98/GEN NMR

erre ene a

0 1
  C     -236.204      -3.365    -151.156
  O     -235.620      -2.990    -152.382
  H     -237.118      -3.928    -151.366
  H     -236.474      -2.480    -150.572
  H     -235.525      -4.003    -150.582
  P     -234.275      -2.108    -152.370
  C     -235.529       0.126    -152.170
  O     -234.642      -0.781    -151.527
  C     -235.599       1.454    -151.412
  O     -234.304       2.109    -151.459
  C     -236.640       2.439    -151.978
  O     -237.419       2.985    -150.911
  C     -235.788       3.534    -152.606
  O     -236.468       4.780    -152.702
  C     -234.560       3.508    -151.682
  N     -233.421       4.203    -152.269
  C     -233.354       5.579    -152.036
  O     -234.222       6.144    -151.367
  N     -232.334       6.299    -152.617
  C     -231.489       5.697    -153.392
  N     -230.521       6.474    -153.957
  C     -231.540       4.251    -153.690
  C     -232.522       3.567    -153.098
  O     -233.685      -1.853    -153.719
  O     -233.280      -2.883    -151.388
  H     -235.827       5.461    -153.012
  H     -232.354      -2.623    -151.598
  H     -230.812       3.804    -154.347
  H     -232.638       2.499    -153.250
  H     -234.794       3.974    -150.712
  H     -235.495       3.226    -153.618
  H     -237.304       1.983    -152.710
  H     -235.795       1.239    -150.352
  H     -230.525       7.464    -153.733
  H     -236.522      -0.335    -152.229
  H     -229.822       6.121    -154.596
  H     -235.157       0.313    -153.183
  P     -238.938       2.469    -150.807
  C     -240.082       4.616    -151.723
  O     -239.798       3.243    -151.922
  O     -239.443       3.101    -149.423
  O     -239.063       0.982    -150.811
  H     -239.558       2.392    -148.760
  H     -240.658       4.984    -152.546
  H     -239.165       5.164    -151.656
  H     -240.637       4.738    -150.816

 6  7  8  9  10  11  12  13  14  15  16  26  30  31  32  33  35 0
 6-311+G(2d,p)
 ****
 37  38 0
 6-311+G(2d,p)
 ****
 1  2  3  4  5  17  18  19  20  21  22  23  24  25 0
 3-21G
 ****
 27  28  29  34  36  39  40  41  42  43  44  45  46 0
 3-21G
 ****


