%nproc=1
%NoSave
%Mem=1900MB
#P OB98/GEN NMR

erre ene a

0 1
  C     -236.344     -18.146       7.394
  O     -237.446     -18.384       6.542
  H     -235.850     -17.222       7.079
  H     -235.622     -18.965       7.342
  H     -236.688     -18.020       8.427
  P     -238.180     -19.809       6.635
  C     -236.678     -20.599       4.687
  O     -237.145     -20.868       6.007
  C     -235.411     -21.403       4.379
  O     -234.398     -21.131       5.368
  C     -235.615     -22.910       4.421
  O     -236.412     -23.415       3.370
  C     -234.196     -23.427       4.607
  O     -233.487     -23.588       3.381
  C     -233.550     -22.295       5.442
  N     -233.305     -22.703       6.820
  C     -232.264     -23.608       7.009
  O     -231.588     -24.066       6.088
  N     -232.045     -24.002       8.300
  C     -232.783     -23.632       9.386
  O     -232.562     -24.055      10.514
  C     -233.889     -22.694       9.120
  C     -234.099     -22.278       7.867
  O     -239.552     -19.876       6.037
  O     -238.144     -20.152       8.198
  H     -232.618     -23.979       3.602
  H     -238.787     -20.865       8.422
  H     -231.288     -24.648       8.459
  H     -234.497     -22.381       9.958
  H     -234.909     -21.590       7.646
  H     -232.586     -22.006       5.003
  H     -234.187     -24.397       5.111
  H     -236.154     -23.152       5.348
  H     -235.029     -21.084       3.401
  H     -236.446     -19.529       4.628
  H     -237.465     -20.833       3.963
  P     -237.547     -24.519       3.584
  C     -236.054     -26.627       3.297
  O     -236.853     -25.844       4.175
  O     -238.556     -24.667       2.491
  O     -238.319     -23.936       4.876
  H     -239.264     -24.161       4.781
  H     -235.662     -27.469       3.827
  H     -235.246     -26.033       2.924
  H     -236.653     -26.968       2.479

 6  7  8  9  10  11  12  13  14  15  16  26  31  32  33  34  35 0
 6-311+G(2d,p)
 ****
 36  37 0
 6-311+G(2d,p)
 ****
 1  2  3  4  5  17  18  19  20  21  22  23  24  25 0
 3-21G
 ****
 27  28  29  30  38  39  40  41  42  43  44  45 0
 3-21G
 ****


