%nproc=1
%NoSave
%Mem=1900MB
#P OB98/GEN NMR

erre ene a

0 1
  C       91.374    -103.045     -57.477
  O       91.136    -104.232     -56.736
  P       91.045    -104.109     -55.139
  C       93.523    -104.767     -54.798
  O       92.528    -103.768     -54.623
  C       94.555    -104.708     -53.678
  O       95.381    -105.904     -53.735
  C       95.494    -103.494     -53.748
  O       95.657    -102.945     -52.432
  C       96.825    -104.099     -54.162
  O       97.928    -103.304     -53.740
  C       96.732    -105.466     -53.485
  N      101.579    -106.874     -53.378
  C      100.904    -105.978     -52.575
  N      101.640    -105.325     -51.650
  N       99.622    -105.740     -52.669
  C       99.007    -106.488     -53.619
  C       99.565    -107.412     -54.470
  C      100.996    -107.622     -54.393
  O      101.667    -108.334     -55.136
  N       98.617    -107.979     -55.282
  C       97.488    -107.398     -54.927
  N       97.680    -106.449     -53.954
  O       90.821    -105.625     -54.678
  O       89.963    -103.222     -54.629
  H       98.736    -103.730     -54.082
  H       90.006    -105.689     -54.142
  H      102.570    -107.006     -53.275
  H       96.519    -107.606     -55.365
  H       96.863    -105.366     -52.400
  H       96.856    -104.188     -55.253
  H      102.623    -105.486     -51.500
  H       95.165    -102.709     -54.437
  H      101.159    -104.681     -51.036
  H       94.026    -104.732     -52.715
  H       94.026    -104.609     -55.758
  H       93.040    -105.749     -54.812
  P       95.883    -101.357     -52.355
  C       98.362    -101.482     -53.141
  O       97.047    -101.031     -53.403
  O       96.580    -101.151     -50.930
  O       94.628    -100.560     -52.500
  H       96.421    -100.247     -50.600
  H       98.401    -102.167     -52.289
  H       98.999    -100.619     -52.929
  H       98.744    -101.997     -54.026
  H       91.410    -103.277     -58.521
  H       92.307    -102.617     -57.175
  H       90.585    -102.346     -57.294

 3  4  5  6  7  8  9  10  11  12  23  26  30  31  33  0
 6-311+G(2d,p)
 ****
 35  36  37  38 0
 6-311+G(2d,p)
 ****
 1  2  13  14  15  16  17  18  19  20  21  22  24  25  27  28  29 0
 3-21G
 ****
 32  34  39  40  41  42  43  44  45  46  47  48  49 0
 3-21G
 ****


