%nproc=1
%NoSave
%Mem=1900MB
#P OB98/GEN NMR

erre ene a

0 1
  C     -778.931     348.084    -331.257
  O     -780.304     348.195    -331.664
  P     -781.098     349.545    -331.327
  C     -782.060     348.586    -329.133
  O     -782.358     349.169    -330.399
  C     -782.755     349.345    -328.010
  O     -782.277     350.709    -327.908
  C     -784.262     349.459    -328.202
  O     -784.903     348.230    -327.923
  C     -784.597     350.599    -327.238
  O     -784.728     350.121    -325.894
  C     -783.346     351.507    -327.372
  N     -783.586     352.699    -328.164
  C     -783.769     353.888    -327.460
  O     -783.765     353.891    -326.223
  N     -783.964     355.052    -328.167
  C     -783.986     355.024    -329.468
  N     -784.191     356.213    -330.109
  C     -783.814     353.783    -330.256
  C     -783.635     352.679    -329.548
  O     -781.415     350.416    -332.507
  O     -780.121     350.296    -330.308
  H     -785.123     350.859    -325.387
  H     -780.240     351.261    -330.403
  H     -783.832     353.817    -331.337
  H     -783.490     351.716    -330.048
  H     -783.017     351.834    -326.372
  H     -785.547     351.089    -327.504
  H     -784.471     349.770    -329.231
  H     -782.537     348.836    -327.055
  H     -784.314     357.037    -329.554
  H     -780.975     348.587    -328.982
  H     -784.172     356.301    -331.115
  H     -782.362     347.536    -329.150
  P     -785.170     347.238    -329.159
  C     -787.676     347.904    -329.368
  O     -786.728     346.873    -329.155
  O     -784.471     345.871    -328.688
  O     -784.617     347.708    -330.468
  H     -784.099     345.418    -329.464
  H     -788.628     347.454    -329.659
  H     -787.346     348.569    -330.178
  H     -787.805     348.480    -328.451
  H     -778.547     347.130    -331.554
  H     -778.865     348.179    -330.193
  H     -778.358     348.859    -331.721

 3  4  5  6  7  8  9  10  11  12  13  23  27  28  29  30  32 0
 6-311+G(2d,p)
 ****
 34  35 0
 6-311+G(2d,p)
 ****
 1  2  14  15  16  17  18  19  20  21  22  24  25  26 0
 3-21G
 ****
 31  33  36  37  38  39  40  41  42  43  44  45  46 0
 3-21G
 ****


