%nproc=1
%NoSave
%Mem=1900MB
#P OB98/GEN NMR

erre ene a

0 1
  C     -428.440    -766.834     423.869
  O     -429.054    -767.182     425.115
  P     -430.619    -767.532     425.065
  C     -431.475    -767.106     427.480
  O     -431.056    -768.056     426.519
  C     -432.561    -767.688     428.388
  O     -433.648    -768.286     427.628
  C     -432.066    -768.765     429.323
  O     -431.412    -768.184     430.438
  C     -433.359    -769.491     429.699
  O     -434.038    -768.813     430.773
  C     -434.169    -769.395     428.406
  N     -435.701    -774.233     428.071
  C     -435.771    -773.348     429.143
  N     -436.338    -773.808     430.263
  N     -435.316    -772.128     429.098
  C     -434.755    -771.790     427.905
  C     -434.649    -772.562     426.769
  C     -435.158    -773.925     426.833
  O     -435.142    -774.744     425.916
  N     -434.086    -771.868     425.739
  C     -433.734    -770.718     426.286
  N     -434.175    -770.595     427.583
  O     -430.669    -768.841     424.145
  O     -431.453    -766.432     424.502
  H     -433.555    -768.982     431.599
  H     -431.083    -768.629     423.282
  H     -436.053    -775.172     428.174
  H     -433.189    -769.937     425.774
  H     -435.220    -769.167     428.609
  H     -433.164    -770.512     430.036
  H     -436.721    -774.748     430.373
  H     -431.383    -769.450     428.788
  H     -436.413    -773.169     431.058
  H     -432.995    -766.852     428.963
  H     -431.855    -766.203     426.980
  H     -430.601    -766.788     428.072
  P     -429.810    -768.043     430.395
  C     -428.800    -768.964     432.608
  O     -429.303    -767.838     431.910
  O     -429.572    -766.625     429.712
  O     -429.127    -769.133     429.628
  H     -428.882    -766.685     429.037
  H     -428.064    -768.627     433.331
  H     -428.336    -769.696     431.941
  H     -429.618    -769.458     433.156
  H     -427.403    -766.623     424.029
  H     -428.921    -765.969     423.463
  H     -428.537    -767.650     423.184

 3  4  5  6  7  8  9  10  11  12  23  26  30  31 0
 6-311+G(2d,p)
 ****
 33  35  36  37  38 0
 6-311+G(2d,p)
 ****
 1  2  13  14  15  16  17  18  19  20  21  22  24  25 0
 3-21G
 ****
 27  28  29  32  34  39  40  41  42  43  44  45  46  47  48  49 0
 3-21G
 ****


