%nproc=1
%NoSave
%Mem=1900MB
#P OB98/GEN NMR

erre ene a

0 1
  C     -153.127     -18.778     359.438
  O     -152.996     -20.053     360.070
  P     -153.454     -20.149     361.607
  C     -151.138     -21.157     362.192
  O     -152.551     -21.253     362.345
  C     -150.465     -22.535     362.264
  O     -150.328     -22.976     363.639
  C     -151.228     -23.627     361.509
  O     -150.261     -24.530     360.971
  C     -151.997     -24.332     362.617
  O     -152.382     -25.642     362.216
  C     -150.968     -24.260     363.759
  N     -151.568     -24.452     365.078
  C     -151.526     -25.740     365.615
  O     -151.062     -26.677     364.955
  N     -152.043     -25.955     366.869
  C     -152.608     -24.977     367.508
  N     -153.103     -25.246     368.745
  C     -152.724     -23.608     366.951
  C     -152.184     -23.423     365.754
  O     -154.899     -20.835     361.520
  O     -153.525     -18.823     362.291
  H     -151.572     -26.141     361.987
  H     -155.544     -20.327     362.043
  H     -153.213     -22.827     367.516
  H     -152.218     -22.461     365.264
  H     -150.194     -25.035     363.628
  H     -152.897     -23.763     362.875
  H     -151.863     -23.241     360.708
  H     -149.454     -22.438     361.846
  H     -152.995     -26.193     369.092
  H     -150.730     -20.519     362.976
  H     -153.558     -24.564     369.325
  H     -150.916     -20.658     361.246
  P     -149.322     -24.017     359.782
  C     -150.063     -25.613     357.905
  O     -149.063     -25.314     358.872
  O     -147.903     -23.885     360.530
  O     -149.688     -22.756     359.077
  H     -147.248     -23.502     359.922
  H     -149.706     -26.433     357.280
  H     -150.257     -24.741     357.276
  H     -150.980     -25.926     358.408
  H     -152.791     -18.846     358.424
  H     -152.535     -18.057     359.962
  H     -154.153     -18.476     359.454

 3  4  5  6  7  8  9  10  11  12  13  21  23  27  28  29  30  32 0
 6-311+G(2d,p)
 ****
 34  35 0
 6-311+G(2d,p)
 ****
 1  2  14  15  16  17  18  19  20  22  24  25  26 0
 3-21G
 ****
 31  33  36  37  38  39  40  41  42  43  44  45  46 0
 3-21G
 ****


