%nproc=1
%NoSave
%Mem=1900MB
#P OB98/GEN NMR

erre ene a

0 1
  C      720.109     740.653     177.985
  O      720.743     739.686     178.803
  P      720.853     738.191     178.234
  C      721.358     737.082     180.554
  O      720.471     737.201     179.448
  C      720.884     735.977     181.489
  O      719.613     736.343     182.072
  C      720.662     734.627     180.834
  O      721.898     733.959     180.566
  C      719.785     733.941     181.877
  O      720.585     733.464     182.958
  C      718.903     735.099     182.358
  N      713.991     733.644     182.638
  C      715.040     733.419     183.446
  N      716.327     733.825     183.306
  C      716.448     734.541     182.165
  C      715.482     734.817     181.229
  C      714.195     734.362     181.500
  N      713.102     734.586     180.669
  N      715.995     735.568     180.189
  C      717.271     735.729     180.483
  N      717.602     735.131     181.683
  O      722.450     737.974     178.088
  O      720.142     737.936     176.939
  H      721.036     734.245     183.342
  H      722.660     737.407     177.317
  H      714.834     732.845     184.369
  H      718.004     736.271     179.898
  H      718.702     735.073     183.430
  H      719.225     733.094     181.472
  H      720.085     734.754     179.885
  H      721.617     735.891     182.314
  H      721.388     738.031     181.085
  H      712.266     734.080     180.856
  H      713.295     735.008     179.762
  H      722.360     736.880     180.168
  P      722.110     733.346     179.106
  C      724.344     732.300     179.817
  O      723.025     732.060     179.368
  O      723.145     734.383     178.454
  O      720.847     733.109     178.322
  H      723.892     734.575     179.057
  H      724.853     731.343     180.017
  H      724.336     732.888     180.758
  H      724.912     732.832     179.063
  H      720.107     741.598     178.487
  H      719.101     740.350     177.790
  H      720.640     740.741     177.060

 3  4  5  6  7  8  9  10  11  12  22  25  29  30  31  32 0
 6-311+G(2d,p)
 ****
 33  36  37 0
 6-311+G(2d,p)
 ****
 1  2  13  14  15  16  17  18  19  20  21  23  24  26 0
 3-21G
 ****
 27  28  34  35  38  39  40  41  42  43  44  45  46  47  48 0
 3-21G
 ****


