%nproc=1
%NoSave
%Mem=1900MB
#P OB98/GEN NMR

erre ene a

0 1
  C      647.525    -898.978     651.139
  O      647.585    -898.878     652.548
  P      647.809    -897.408     653.209
  C      645.971    -897.628     655.059
  O      646.376    -897.018     653.833
  C      644.662    -897.008     655.572
  O      644.905    -895.638     656.008
  C      643.522    -896.988     654.525
  O      642.291    -897.238     655.245
  C      643.570    -895.558     654.031
  O      642.310    -895.168     653.459
  C      643.924    -894.808     655.332
  N      644.460    -893.468     655.086
  C      643.574    -892.558     654.521
  O      642.439    -892.838     654.157
  N      644.060    -891.278     654.333
  C      645.369    -890.878     654.572
  O      645.767    -889.738     654.382
  C      646.289    -891.938     655.059
  C      645.782    -893.168     655.261
  O      647.887    -896.518     651.889
  O      648.981    -897.348     654.117
  H      647.296    -896.808     651.154
  H      641.600    -895.348     654.110
  H      643.444    -890.598     653.959
  H      647.320    -891.688     655.172
  H      646.451    -893.968     655.604
  H      643.052    -894.718     655.979
  H      644.363    -895.428     653.263
  H      643.667    -897.728     653.728
  H      644.328    -897.598     656.450
  H      646.748    -897.478     655.843
  H      645.872    -898.718     654.893
  P      641.731    -898.738     655.268
  C      641.931    -899.158     657.833
  O      642.356    -899.498     656.547
  O      642.561    -899.388     654.044
  O      640.255    -898.858     655.081
  H      643.513    -899.188     654.078
  H      642.285    -899.928     658.554
  H      640.833    -899.138     657.897
  H      642.310    -898.188     658.152
  H      647.375    -900.000     650.860
  H      648.442    -898.624     650.717
  H      646.712    -898.386     650.774

 3  4  5  6  7  8  9  10  11  12  13  24  28  29  30  31  32 0
 6-311+G(2d,p)
 ****
 33  34 0
 6-311+G(2d,p)
 ****
 1  2  14  15  16  17  18  19  20  21  22  23  25  26  27 0
 3-21G
 ****
 35  36  37  38  39  40  41  42  43  44  45 0
 3-21G
 ****


