%nproc=1
%NoSave
%Mem=1900MB
#P OB98/GEN NMR

erre ene a

0 1
  C     -115.625      64.162     104.183
  O     -114.935      64.641     103.046
  H     -116.689      64.089     103.944
  H     -115.496      64.856     105.018
  H     -115.255      63.172     104.462
  P     -113.344      64.782     103.182
  C     -113.521      67.371     103.438
  O     -113.092      66.139     104.000
  C     -112.951      68.546     104.241
  O     -113.340      68.387     105.637
  C     -111.416      68.626     104.209
  O     -111.029      70.006     104.334
  C     -111.041      67.885     105.480
  O     -109.709      68.165     105.840
  C     -112.125      68.411     106.414
  N     -110.367      67.688     111.144
  C     -110.081      68.618     110.209
  N     -110.602      68.749     108.971
  C     -111.528      67.801     108.747
  C     -111.923      66.787     109.601
  C     -111.293      66.744     110.855
  N     -111.562      65.785     111.805
  N     -112.882      65.992     108.999
  C     -113.065      66.524     107.807
  N     -112.270      67.618     107.613
  O     -112.880      65.143     101.694
  O     -112.633      63.586     103.717
  H     -109.450      67.672     106.645
  H     -112.644      64.329     101.212
  H     -109.335      69.356     110.491
  H     -113.745      66.156     107.050
  H     -111.943      69.447     106.724
  H     -111.125      66.804     105.345
  H     -110.977      68.203     103.302
  H     -113.409      69.478     103.889
  H     -114.615      67.400     103.457
  H     -113.175      67.437     102.402
  H     -111.046      65.809     112.669
  H     -112.225      65.053     111.591
  P     -110.769      70.866     103.003
  C     -108.217      70.322     102.947
  O     -109.452      70.347     102.248
  O     -110.282      72.271     103.604
  O     -111.962      71.070     102.127
  H     -110.738      73.001     103.147
  H     -107.449      69.952     102.301
  H     -108.303      69.683     103.801
  H     -107.968      71.312     103.266

 6  7  8  9  10  11  12  13  14  15  25  28  32  33  34  35 0
 6-311+G(2d,p)
 ****
 36  37  40 0
 6-311+G(2d,p)
 ****
 1  2  3  4  5  16  17  18  19  20  21  22  23  24 0
 3-21G
 ****
 26  27  29  30  31  38  39 41  42  43  44  45  46  47  48 0
 3-21G
 ****


