%nproc=1
%NoSave
%Mem=1900MB
#P OB98/GEN NMR

erre ene a

0 1
  C       52.707     179.169      13.204
  O       53.714     178.650      14.049
  H       53.175     179.815      12.455
  H       51.987     179.762      13.775
  H       52.191     178.354      12.688
  P       53.281     177.797      15.333
  C       52.636     178.317      17.774
  O       52.978     178.856      16.502
  C       52.782     179.377      18.866
  O       54.165     179.822      18.899
  C       51.891     180.607      18.656
  O       51.424     181.050      19.932
  C       52.851     181.617      18.058
  O       52.410     182.943      18.268
  C       54.173     181.253      18.743
  N       55.319     181.716      17.963
  C       56.175     182.628      18.592
  O       55.957     182.992      19.747
  N       57.220     183.159      17.876
  C       57.365     182.852      16.623
  N       58.397     183.444      15.964
  C       56.471     181.915      15.916
  C       55.480     181.389      16.635
  O       54.197     176.683      15.723
  O       51.825     177.251      14.952
  H       53.077     183.567      17.914
  H       51.897     176.381      14.516
  H       56.631     181.697      14.869
  H       54.766     180.700      16.194
  H       54.225     181.701      19.748
  H       52.933     181.452      16.975
  H       51.041     180.409      17.993
  H       52.577     178.907      19.838
  H       58.970     184.098      16.487
  H       53.314     177.481      17.978
  H       58.585     183.317      14.980
  H       51.610     177.939      17.750
  P       49.853     181.243      20.208
  C       48.270     183.237      20.486
  O       49.435     182.749      19.831
  O       49.394     180.791      21.556
  O       49.153     180.370      19.056
  H       48.298     180.032      19.384
  H       48.077     184.241      20.170
  H       48.422     183.220      21.545
  H       47.434     182.618      20.236

 6  7  8  9  10  11  12  13  14  15  16  26  30  31  32  33  35 0
 6-311+G(2d,p)
 ****
 37  38 0
 6-311+G(2d,p)
 ****
 1  2  3  4  5  17  18  19  20  21  22  23  24  25 0
 3-21G
 ****
 27  28  29  34  36  39  40  41  42  43  44  45  46 0
 3-21G
 ****


