%nproc=1
%NoSave
%Mem=1900MB
#P OB98/GEN NMR

erre ene a

0 1
  C      -22.462     516.019     215.673
  O      -21.767     516.037     216.918
  P      -21.233     517.411     217.530
  C      -19.292     519.090     216.975
  O      -20.019     517.924     216.642
  C      -18.379     519.468     215.800
  O      -19.108     519.376     214.552
  C      -17.846     520.886     215.930
  O      -16.567     520.892     216.553
  C      -17.819     521.372     214.490
  O      -16.637     520.894     213.823
  C      -19.072     520.682     213.915
  N      -20.385     521.322     214.126
  C      -20.766     522.412     213.334
  O      -20.077     522.849     212.422
  N      -21.979     522.976     213.644
  C      -22.836     522.556     214.620
  O      -23.784     523.201     215.053
  C      -22.510     521.256     215.235
  C      -21.312     520.719     214.985
  O      -20.516     516.941     218.896
  O      -22.277     518.455     217.776
  H      -16.449     521.517     213.099
  H      -21.118     517.082     219.655
  H      -22.195     523.849     213.166
  H      -23.224     520.811     215.911
  H      -21.027     519.791     215.456
  H      -18.968     520.512     212.836
  H      -17.785     522.460     214.446
  H      -18.555     521.511     216.504
  H      -17.543     518.756     215.757
  H      -18.707     518.916     217.883
  H      -19.988     519.919     217.192
  P      -16.013     522.230     217.218
  C      -16.253     524.657     216.395
  O      -16.004     523.319     216.022
  O      -14.724     522.104     217.965
  O      -17.214     522.712     218.165
  H      -17.038     522.424     219.089
  H      -16.043     525.304     215.540
  H      -15.602     524.951     217.234
  H      -17.299     524.776     216.685
  H      -22.737     515.013     215.433
  H      -21.827     516.408     214.905
  H      -23.343     516.622     215.747

 3  4  5  6  7  8  9  10  11  12  13  23  28  29  30  31  32 0
 6-311+G(2d,p)
 ****
 33  34 0
 6-311+G(2d,p)
 ****
 1  2  14  15  16  17  18  19  20  21  22  24  25  26  27 0
 3-21G
 ****
 35  36  37  38  39  40  41  42  43  44  45 0
 3-21G
 ****


