%nproc=1
%NoSave
%Mem=1900MB
#P OB98/GEN NMR

erre ene a

0 1
  C     -461.886    -485.860     409.258
  O     -460.893    -484.927     409.631
  H     -462.553    -485.396     408.528
  H     -462.478    -486.164     410.128
  H     -461.424    -486.739     408.798
  P     -459.881    -485.301     410.813
  C     -460.828    -483.293     412.116
  O     -459.657    -483.959     411.665
  C     -460.472    -481.969     412.799
  O     -459.981    -482.255     414.139
  C     -459.389    -481.169     412.059
  O     -459.703    -479.779     412.167
  C     -458.137    -481.496     412.846
  O     -457.146    -480.497     412.694
  C     -458.677    -481.660     414.271
  N     -457.782    -482.474     415.091
  C     -457.043    -481.800     416.070
  O     -457.172    -480.580     416.211
  N     -456.122    -482.498     416.806
  C     -455.916    -483.754     416.556
  N     -454.969    -484.380     417.305
  C     -456.658    -484.502     415.521
  C     -457.563    -483.809     414.837
  O     -458.625    -486.002     410.406
  O     -460.766    -486.210     411.792
  H     -456.410    -480.672     413.329
  H     -460.680    -487.152     411.547
  H     -456.445    -485.548     415.350
  H     -458.149    -484.272     414.045
  H     -458.804    -480.682     414.755
  H     -457.713    -482.445     412.494
  H     -459.297    -481.449     411.002
  H     -461.384    -481.375     412.916
  H     -454.466    -483.817     417.987
  H     -461.337    -483.948     412.832
  H     -454.691    -485.342     417.174
  H     -461.499    -483.106     411.271
  P     -459.632    -478.824     410.878
  C     -457.926    -477.023     411.508
  O     -459.312    -477.322     411.359
  O     -460.796    -478.943     409.948
  O     -458.276    -479.269     410.144
  H     -458.370    -479.128     409.183
  H     -457.812    -476.009     411.829
  H     -457.429    -477.158     410.570
  H     -457.496    -477.678     412.237

 6  7  8  9  10  11  12  13  14  15  16  26  30  31  32  33  35 0
 6-311+G(2d,p)
 ****
 37  38 0
 6-311+G(2d,p)
 ****
 1  2  3  4  5  17  18  19  20  21  22  23  24  25 0
 3-21G
 ****
 27  28  29  34  36  39  40  41  42  43  44  45  46 0
 3-21G
 ****


