%nproc=1
%NoSave
%Mem=1900MB
#P OB98/GEN NMR

erre ene a

0 1
  C      134.711    -338.179      68.508
  O      134.011    -337.932      69.713
  H      135.541    -337.470      68.432
  H      134.058    -338.039      67.642
  H      135.114    -339.195      68.506
  P      132.654    -338.742      69.981
  C      133.843    -340.409      71.564
  O      132.832    -339.416      71.423
  C      134.275    -340.515      73.022
  O      135.180    -339.444      73.353
  C      133.115    -340.397      74.001
  O      132.364    -341.594      74.044
  C      133.853    -340.041      75.276
  O      134.424    -341.203      75.891
  C      134.958    -339.100      74.741
  N      134.615    -337.689      74.884
  C      134.531    -337.206      76.195
  O      134.746    -337.952      77.149
  N      134.183    -335.892      76.385
  C      133.958    -335.126      75.366
  N      133.618    -333.833      75.624
  C      134.049    -335.590      73.968
  C      134.374    -336.871      73.802
  O      132.209    -339.688      68.908
  O      131.576    -337.589      70.249
  H      133.693    -341.850      75.970
  H      131.156    -337.314      69.414
  H      133.858    -334.914      73.150
  H      134.465    -337.293      72.808
  H      135.904    -339.277      75.267
  H      133.192    -339.572      76.003
  H      132.477    -339.548      73.730
  H      134.810    -341.463      73.157
  H      133.557    -333.560      76.600
  H      134.688    -340.102      70.939
  H      133.505    -333.126      74.914
  H      133.482    -341.380      71.205
  P      130.764    -341.551      74.134
  C      130.632    -340.544      71.762
  O      130.249    -341.623      72.613
  O      130.202    -340.437      74.950
  O      130.396    -343.005      74.702
  H      130.610    -343.080      75.666
  H      130.233    -340.703      70.782
  H      131.699    -340.494      71.708
  H      130.251    -339.625      72.157

 6  7  8  9  10  11  12  13  14  15  16  26  30  31  32  33  35 0
 6-311+G(2d,p)
 ****
 37  38 0
 6-311+G(2d,p)
 ****
 1  2  3  4  5  17  18  19  20  21  22  23  24  25 0
 3-21G
 ****
 27  28  29  34  36  39  40  41  42  43  44  45  46 0
 3-21G
 ****


