%nproc=1
%NoSave
%Mem=1900MB
#P OB98/GEN NMR

erre ene a

0 1
  C       96.966    -106.469    -459.569
  O       97.716    -105.568    -460.393
  P       97.314    -104.011    -460.370
  C       98.393    -103.048    -458.211
  O       98.470    -103.192    -459.621
  C       99.163    -101.804    -457.755
  O       98.925    -101.500    -456.368
  C      100.676    -101.946    -457.878
  O      101.121    -101.690    -459.208
  C      101.153    -100.846    -456.945
  O      101.078     -99.568    -457.610
  C      100.124    -100.911    -455.814
  N      103.919    -101.785    -452.485
  C      103.818    -100.936    -453.531
  N      102.783    -100.771    -454.380
  C      101.770    -101.592    -454.059
  C      101.735    -102.518    -453.023
  C      102.875    -102.596    -452.207
  N      102.976    -103.464    -451.143
  N      100.527    -103.191    -453.005
  C       99.843    -102.675    -454.008
  N      100.553    -101.711    -454.677
  O       96.097    -103.973    -459.331
  O       96.907    -103.474    -461.702
  H      101.199     -98.882    -456.929
  H       95.451    -103.296    -459.600
  H      104.677    -100.300    -453.708
  H       98.838    -102.958    -454.282
  H       99.855     -99.918    -455.425
  H      102.197    -100.977    -456.633
  H      101.012    -102.924    -457.512
  H       98.827    -100.952    -458.363
  H       98.791    -103.939    -457.715
  H      103.814    -103.446    -450.591
  H      102.187    -104.058    -450.918
  H       97.338    -102.978    -457.914
  P      102.141    -102.747    -459.855
  C      100.730    -104.913    -460.112
  O      101.240    -103.742    -460.727
  O      102.596    -103.627    -458.596
  O      103.303    -102.125    -460.555
  H      103.506    -103.954    -458.726
  H       99.916    -105.300    -460.731
  H      100.336    -104.693    -459.114
  H      101.516    -105.669    -460.048
  H       97.346    -107.462    -459.689
  H       95.936    -106.444    -459.858
  H       97.056    -106.174    -458.544

 3  4  5  6  7  8  9  10  11  12  22  25  29  30  31  32 0
 6-311+G(2d,p)
 ****
 33  36  37 0
 6-311+G(2d,p)
 ****
 1  2  13  14  15  16  17  18  19  20  21  23  24  26 0
 3-21G
 ****
 27  28  34  35  38  39  40  41  42  43  44  45  46  47  48 0
 3-21G
 ****


