%nproc=1
%NoSave
%Mem=1900MB
#P OB98/GEN NMR

erre ene a

0 1
  C     -429.254     175.361     395.915
  O     -428.792     175.047     394.617
  H     -428.449     175.165     396.629
  H     -430.110     174.733     396.173
  H     -429.533     176.417     395.984
  P     -429.725     175.388     393.361
  C     -429.162     173.232     392.054
  O     -430.170     173.989     392.716
  C     -429.722     172.629     390.770
  O     -430.887     171.828     391.062
  C     -430.184     173.670     389.752
  O     -429.085     174.257     389.085
  C     -431.091     172.828     388.872
  O     -430.324     172.073     387.918
  C     -431.758     171.895     389.908
  N     -433.101     172.338     390.288
  C     -434.164     171.621     389.747
  O     -434.022     170.689     388.961
  N     -435.416     172.045     390.115
  C     -435.700     173.153     390.866
  O     -436.840     173.536     391.094
  C     -434.539     173.879     391.393
  C     -433.308     173.448     391.086
  O     -429.172     176.381     392.393
  O     -431.082     175.917     394.029
  H     -429.844     171.392     388.431
  H     -431.130     176.888     393.941
  H     -436.199     171.548     389.721
  H     -434.722     174.755     392.003
  H     -432.443     173.975     391.458
  H     -431.833     170.876     389.511
  H     -431.796     173.432     388.305
  H     -430.792     174.436     390.249
  H     -428.956     171.975     390.331
  H     -428.832     172.427     392.719
  H     -428.308     173.888     391.841
  P     -429.073     175.831     388.796
  C     -430.021     175.304     386.462
  O     -430.134     176.119     387.628
  O     -427.724     176.434     388.586
  O     -429.782     176.461     390.085
  H     -429.160     177.064     390.530
  H     -430.775     175.584     385.756
  H     -430.149     174.276     386.731
  H     -429.054     175.440     386.024

 6  7  8  9  10  11  12  13  14  15  16  26  31  32  33  34  35 0
 6-311+G(2d,p)
 ****
 36  37 0
 6-311+G(2d,p)
 ****
 1  2  3  4  5  17  18  19  20  21  22  23  24  25 0
 3-21G
 ****
 27  28  29  30  38  39  40  41  42  43  44  45 0
 3-21G
 ****


