%nproc=1
%NoSave
%Mem=1900MB
#P OB98/GEN NMR

erre ene a

0 1
  C       80.740    -262.567    -431.716
  O       80.606    -263.863    -432.270
  H       81.806    -262.334    -431.609
  H       80.272    -262.536    -430.729
  H       80.278    -261.820    -432.375
  P       79.122    -264.364    -432.616
  C       80.081    -265.283    -434.862
  O       79.287    -265.534    -433.712
  C       79.955    -266.451    -435.848
  O       80.873    -267.507    -435.421
  C       78.547    -267.059    -435.890
  O       78.253    -267.458    -437.235
  C       78.674    -268.292    -435.001
  O       77.697    -269.291    -435.287
  C       80.109    -268.731    -435.304
  N       80.661    -269.576    -434.256
  C       80.627    -270.956    -434.454
  O       80.217    -271.504    -435.490
  N       81.075    -271.723    -433.412
  C       81.517    -271.260    -432.196
  O       81.879    -271.997    -431.291
  C       81.535    -269.797    -432.045
  C       81.115    -269.035    -433.062
  O       78.512    -263.148    -433.466
  O       78.271    -264.730    -431.441
  H       78.071    -262.509    -432.873
  H       76.816    -268.872    -435.215
  H       81.041    -272.726    -433.544
  H       81.872    -269.395    -431.101
  H       81.090    -267.948    -432.964
  H       80.155    -269.240    -436.265
  H       78.566    -268.003    -433.952
  H       77.776    -266.373    -435.532
  H       80.280    -266.118    -436.833
  H       81.132    -265.177    -434.555
  H       79.755    -264.346    -435.338
  P       77.918    -266.306    -438.301
  C       78.484    -267.910    -440.297
  O       77.533    -267.065    -439.664
  O       79.373    -265.705    -438.576
  O       76.908    -265.322    -437.799
  H       80.083    -266.377    -438.584
  H       78.056    -268.327    -441.185
  H       78.760    -268.699    -439.629
  H       79.352    -267.340    -440.554

 6  7  8  9  10  11  12  13  14  15  16  27  31  32  33  34  35 0
 6-311+G(2d,p)
 ****
 36  37 0
 6-311+G(2d,p)
 ****
 1  2  3  4  5  17  18  19  20  21  22  23  24  25 0
 3-21G
 ****
 26  28  29  30  38  39  40  41  42  43  44  45 0
 3-21G
 ****


