%nproc=1
%NoSave
%Mem=1900MB
#P OB98/GEN NMR

erre ene a

0 1
  C     -417.975    -192.747      14.229
  O     -417.561    -193.330      13.001
  P     -416.197    -192.819      12.331
  C     -417.051    -191.131      10.467
  O     -416.415    -191.363      11.709
  C     -416.762    -189.689      10.012
  O     -417.410    -188.750      10.895
  C     -415.273    -189.350       9.997
  O     -414.652    -189.721       8.776
  C     -415.297    -187.848      10.231
  O     -415.641    -187.158       9.019
  C     -416.442    -187.728      11.271
  N     -416.103    -187.902      12.703
  C     -416.433    -186.909      13.622
  O     -417.001    -185.850      13.325
  N     -416.100    -187.156      14.925
  C     -415.641    -188.338      15.434
  O     -415.410    -188.523      16.625
  C     -415.446    -189.405      14.451
  C     -415.671    -189.143      13.151
  O     -416.027    -193.758      11.049
  O     -415.010    -192.884      13.234
  H     -414.838    -187.118       8.469
  H     -415.231    -194.317      11.134
  H     -416.270    -186.418      15.593
  H     -415.123    -190.378      14.812
  H     -415.529    -189.926      12.415
  H     -416.939    -186.755      11.182
  H     -414.317    -187.483      10.520
  H     -414.772    -189.818      10.855
  H     -417.187    -189.560       9.000
  H     -418.127    -191.290      10.548
  H     -416.682    -191.845       9.722
  P     -413.493    -190.832       8.776
  C     -411.440    -189.332       9.131
  O     -412.340    -190.246       9.722
  O     -413.051    -191.314       7.436
  O     -414.110    -192.013       9.668
  H     -414.526    -192.705       9.092
  H     -410.810    -188.898       9.914
  H     -411.990    -188.530       8.622
  H     -410.805    -189.852       8.408
  H     -418.896    -193.192      14.543
  H     -418.115    -191.695      14.095
  H     -417.226    -192.915      14.974

 3  4  5  6  7  8  9  10  11  12  13  23  28  29  30  31  32 0
 6-311+G(2d,p)
 ****
 33  34 0
 6-311+G(2d,p)
 ****
 1  2  14  15  16  17  18  19  20  21  22  24  25  26  27 0
 3-21G
 ****
 35  36  37  38  39  40  41  42  43  44  45 0
 3-21G
 ****


