%nproc=1
%NoSave
%Mem=1900MB
#P OB98/GEN NMR

erre ene a

0 1
  C      132.268     -66.351     -20.539
  O      132.449     -67.585     -21.221
  P      133.551     -67.630     -22.388
  C      134.316     -65.769     -24.027
  O      133.231     -66.371     -23.330
  C      133.857     -64.507     -24.743
  O      133.114     -63.673     -23.836
  C      134.985     -63.632     -25.269
  O      135.496     -64.107     -26.504
  C      134.266     -62.303     -25.449
  O      133.552     -62.303     -26.700
  C      133.279     -62.299     -24.269
  N      134.932     -57.760     -22.753
  C      134.550     -58.190     -24.010
  N      134.589     -57.269     -24.997
  N      134.168     -59.409     -24.274
  C      134.138     -60.210     -23.183
  C      134.494     -59.902     -21.889
  C      134.966     -58.560     -21.619
  O      135.379     -58.142     -20.540
  N      134.316     -60.974     -21.053
  C      133.820     -61.917     -21.829
  N      133.723     -61.511     -23.138
  O      133.088     -68.880     -23.275
  O      134.962     -67.768     -21.925
  H      133.026     -61.481     -26.727
  H      133.855     -69.249     -23.754
  H      135.202     -56.805     -22.602
  H      133.522     -62.899     -21.489
  H      132.292     -61.940     -24.579
  H      134.949     -61.447     -25.471
  H      134.748     -56.287     -24.831
  H      135.779     -63.521     -24.522
  H      134.278     -57.555     -25.916
  H      133.186     -64.801     -25.562
  H      134.705     -66.476     -24.766
  H      135.111     -65.539     -23.311
  P      136.834     -63.404     -27.049
  C      137.376     -60.981     -27.815
  O      136.380     -61.936     -27.506
  O      137.118     -64.168     -28.424
  O      137.991     -63.475     -26.111
  H      138.069     -64.134     -28.641
  H      138.236     -61.445     -28.308
  H      137.704     -60.487     -26.898
  H      136.950     -60.234     -28.488
  H      131.509     -66.464     -19.793
  H      131.972     -65.597     -21.238
  H      133.187     -66.063     -20.072

 3  4  5  6  7  8  9  10  11  12  23  26  30  31  33  0
 6-311+G(2d,p)
 ****
 35  36  37  38 0
 6-311+G(2d,p)
 ****
 1  2  13  14  15  16  17  18  19  20  21  22  24  25  27  28  29 0
 3-21G
 ****
 32  34  39  40  41  42  43  44  45  46  47  48  49 0
 3-21G
 ****


