%nproc=1
%NoSave
%Mem=1900MB
#P OB98/GEN NMR

erre ene a

0 1
  C      -39.606     105.855     -31.074
  O      -39.596     107.237     -30.703
  P      -38.220     107.810     -30.095
  C      -36.090     108.077     -31.567
  O      -37.419     108.505     -31.298
  C      -35.614     108.607     -32.917
  O      -36.450     108.129     -33.986
  C      -35.646     110.124     -33.038
  O      -34.523     110.726     -32.411
  C      -35.576     110.301     -34.548
  O      -34.210     110.213     -34.990
  C      -36.386     109.098     -35.060
  N      -39.695     109.306     -38.893
  C      -38.377     108.894     -38.883
  N      -37.878     108.448     -40.057
  N      -37.617     108.916     -37.821
  C      -38.258     109.358     -36.712
  C      -39.556     109.795     -36.594
  C      -40.378     109.795     -37.787
  O      -41.540     110.180     -37.857
  N      -39.850     110.158     -35.306
  C      -38.741     109.915     -34.637
  N      -37.739     109.441     -35.451
  O      -37.376     106.480     -29.809
  O      -38.399     108.637     -28.867
  H      -33.755     111.019     -34.676
  H      -36.739     106.638     -29.086
  H      -40.232     109.275     -39.742
  H      -38.612     110.059     -33.572
  H      -35.896     108.610     -35.910
  H      -35.953     111.274     -34.879
  H      -38.427     108.336     -40.894
  H      -36.592     110.529     -32.659
  H      -36.924     108.107     -40.060
  H      -34.592     108.241     -33.084
  H      -36.047     106.986     -31.570
  H      -35.438     108.418     -30.758
  P      -34.595     110.932     -30.821
  C      -33.882     109.052     -29.182
  O      -33.495     109.943     -30.209
  O      -35.990     110.253     -30.430
  O      -34.521     112.355     -30.378
  H      -36.360     110.676     -29.633
  H      -34.849     108.592     -29.402
  H      -33.937     109.587     -28.231
  H      -33.129     108.262     -29.100
  H      -40.569     105.597     -31.462
  H      -39.394     105.254     -30.215
  H      -38.862     105.681     -31.823

 3  4  5  6  7  8  9  10  11  12  23  26  30  31  33  0
 6-311+G(2d,p)
 ****
 35  36  37  38 0
 6-311+G(2d,p)
 ****
 1  2  13  14  15  16  17  18  19  20  21  22  24  25  27  28  29 0
 3-21G
 ****
 32  34  39  40  41  42  43  44  45  46  47  48  49 0
 3-21G
 ****


