%nproc=1
%NoSave
%Mem=1900MB
#P OB98/GEN NMR

erre ene a

0 1
  C     -202.150     -77.006     354.558
  O     -203.168     -76.601     355.483
  P     -203.953     -77.636     356.419
  C     -203.871     -76.384     358.674
  O     -204.686     -76.832     357.598
  C     -204.225     -74.953     359.096
  O     -203.844     -74.012     358.076
  C     -205.711     -74.709     359.339
  O     -206.120     -75.259     360.580
  C     -205.774     -73.189     359.261
  O     -205.386     -72.588     360.507
  C     -204.732     -72.882     358.161
  N     -205.351     -72.591     356.873
  C     -206.541     -71.857     356.905
  O     -207.052     -71.533     357.980
  N     -207.138     -71.521     355.710
  C     -206.638     -71.948     354.593
  N     -207.263     -71.583     353.447
  C     -205.435     -72.806     354.525
  C     -204.849     -73.079     355.692
  O     -203.121     -78.785     356.896
  O     -205.172     -78.166     355.519
  H     -204.421     -72.726     360.590
  H     -205.383     -79.081     355.781
  H     -205.061     -73.163     353.577
  H     -203.955     -73.696     355.729
  H     -204.112     -72.027     358.452
  H     -206.776     -72.820     359.023
  H     -206.297     -75.141     358.519
  H     -203.647     -74.720     360.002
  H     -208.081     -70.991     353.530
  H     -202.823     -76.415     358.342
  H     -206.956     -71.860     352.529
  H     -203.991     -77.070     359.520
  P     -207.676     -75.533     360.848
  C     -207.501     -78.055     361.280
  O     -207.782     -76.787     361.838
  O     -208.541     -75.608     359.633
  O     -208.117     -74.309     361.788
  H     -209.052     -74.094     361.608
  H     -207.215     -78.737     362.085
  H     -206.689     -77.997     360.555
  H     -208.400     -78.441     360.791
  H     -201.771     -76.146     354.046
  H     -202.565     -77.690     353.847
  H     -201.354     -77.484     355.090

 3  4  5  6  7  8  9  10  11  12  13  23  27  28  29  30  32 0
 6-311+G(2d,p)
 ****
 34  35 0
 6-311+G(2d,p)
 ****
 1  2  14  15  16  17  18  19  20  21  22  24  25  26 0
 3-21G
 ****
 31  33  36  37  38  39  40  41  42  43  44  45  46 0
 3-21G
 ****


