%nproc=1
%NoSave
%Mem=1900MB
#P OB98/GEN NMR

erre ene a

0 1
  C     1433.090    -598.245     -57.403
  O     1431.824    -597.615     -57.535
  P     1430.518    -598.471     -57.917
  C     1428.000    -597.856     -58.102
  O     1429.268    -597.511     -57.543
  C     1426.999    -596.755     -57.801
  O     1426.825    -596.645     -56.368
  C     1427.412    -595.358     -58.289
  O     1427.219    -595.230     -59.675
  C     1426.521    -594.478     -57.399
  O     1425.194    -594.424     -57.948
  C     1426.491    -595.258     -56.045
  N     1427.423    -594.694     -55.092
  C     1427.115    -593.442     -54.561
  O     1426.074    -592.852     -54.924
  N     1427.915    -592.884     -53.619
  C     1428.975    -593.531     -53.207
  N     1429.715    -592.954     -52.222
  C     1429.382    -594.836     -53.770
  C     1428.571    -595.371     -54.676
  O     1430.466    -599.838     -57.276
  O     1430.476    -598.495     -59.504
  H     1424.869    -595.357     -58.029
  H     1430.975    -599.248     -59.898
  H     1430.284    -595.336     -53.428
  H     1428.793    -596.323     -55.121
  H     1425.478    -595.273     -55.640
  H     1426.865    -593.448     -57.300
  H     1428.463    -595.162     -58.036
  H     1426.028    -597.033     -58.231
  H     1429.280    -592.157     -51.739
  H     1427.651    -598.782     -57.671
  H     1430.370    -593.519     -51.676
  H     1428.129    -597.987     -59.195
  P     1428.267    -594.326     -60.462
  C     1429.307    -594.381     -62.850
  O     1428.521    -595.039     -61.877
  O     1429.636    -594.507     -59.656
  O     1427.858    -592.872     -60.560
  H     1429.788    -593.732     -59.069
  H     1429.581    -595.097     -63.613
  H     1430.227    -593.984     -62.418
  H     1428.716    -593.574     -63.320
  H     1433.827    -597.513     -57.147
  H     1433.355    -598.710     -58.330
  H     1433.041    -598.987     -56.633

 3  4  5  6  7  8  9  10  11  12  13  23  27  28  29  30  32 0
 6-311+G(2d,p)
 ****
 34  35 0
 6-311+G(2d,p)
 ****
 1  2  14  15  16  17  18  19  20  21  22  24  25  26 0
 3-21G
 ****
 31  33  36  37  38  39  40  41  42  43  44  45  46 0
 3-21G
 ****


