%nproc=1
%NoSave
%Mem=1900MB
#P OB98/GEN NMR

erre ene a

0 1
  C      197.416      25.865    -198.447
  O      196.540      26.451    -199.391
  P      197.087      27.099    -200.751
  C      198.250      29.302    -201.392
  O      197.719      28.517    -200.336
  C      199.364      30.226    -200.896
  O      200.043      29.605    -199.768
  C      200.430      30.567    -201.946
  O      200.859      31.904    -201.668
  C      201.537      29.577    -201.623
  O      202.794      29.963    -202.160
  C      201.450      29.539    -200.090
  N      202.088      28.351    -199.536
  C      203.092      28.562    -198.587
  O      203.456      29.709    -198.315
  N      203.701      27.475    -198.013
  C      203.401      26.281    -198.428
  N      204.031      25.240    -197.820
  C      202.439      26.021    -199.514
  C      201.815      27.088    -200.009
  O      196.102      27.154    -201.868
  O      198.389      26.231    -201.087
  H      203.381      29.176    -202.173
  H      198.127      25.356    -201.474
  H      202.265      25.015    -199.867
  H      201.091      26.997    -200.805
  H      201.929      30.429    -199.654
  H      201.284      28.595    -202.039
  H      200.075      30.479    -202.975
  H      198.898      31.149    -200.525
  H      204.673      25.465    -197.069
  H      197.442      29.918    -201.798
  H      203.814      24.274    -198.010
  H      198.612      28.655    -202.194
  P      201.729      32.734    -202.725
  C      204.027      32.409    -203.814
  O      203.209      32.127    -202.690
  O      201.658      34.220    -202.574
  O      201.178      32.266    -204.154
  H      201.470      32.898    -204.838
  H      205.069      32.198    -203.561
  H      203.937      33.459    -204.109
  H      203.725      31.771    -204.651
  H      196.851      25.495    -197.617
  H      198.114      26.600    -198.104
  H      197.946      25.057    -198.906

 3  4  5  6  7  8  9  10  11  12  13  23  27  28  29  30  32 0
 6-311+G(2d,p)
 ****
 34  35 0
 6-311+G(2d,p)
 ****
 1  2  14  15  16  17  18  19  20  21  22  24  25  26 0
 3-21G
 ****
 31  33  36  37  38  39  40  41  42  43  44  45  46 0
 3-21G
 ****


