%nproc=1
%NoSave
%Mem=1900MB
#P OB98/GEN NMR

erre ene a

0 1
  C     -964.198    -628.143    -899.025
  O     -963.548    -627.392    -898.024
  H     -965.272    -628.174    -898.799
  H     -963.813    -629.169    -899.045
  H     -964.057    -627.673    -900.000
  P     -961.943    -627.320    -898.119
  C     -960.072    -628.936    -897.289
  O     -961.465    -628.655    -897.359
  C     -959.680    -629.294    -895.854
  O     -960.549    -630.338    -895.338
  C     -958.266    -629.819    -895.685
  O     -957.275    -628.807    -895.721
  C     -958.383    -630.461    -894.321
  O     -958.397    -629.430    -893.306
  C     -959.767    -631.149    -894.424
  N     -959.669    -632.529    -894.910
  C     -958.928    -633.423    -894.116
  O     -958.396    -633.039    -893.088
  N     -958.788    -634.728    -894.538
  C     -959.363    -635.112    -895.643
  N     -959.183    -636.402    -896.013
  C     -960.154    -634.213    -896.504
  C     -960.269    -632.956    -896.069
  O     -961.563    -626.163    -897.065
  O     -961.370    -627.127    -899.482
  H     -958.636    -629.883    -892.465
  H     -960.586    -626.139    -896.942
  H     -960.600    -634.573    -897.413
  H     -960.851    -632.237    -896.657
  H     -960.279    -631.150    -893.461
  H     -957.553    -631.128    -894.081
  H     -958.047    -630.609    -896.424
  H     -959.849    -628.394    -895.226
  H     -958.580    -636.981    -895.439
  H     -959.521    -628.047    -897.601
  H     -959.459    -636.753    -896.926
  H     -959.826    -629.771    -897.942
  P     -955.738    -629.280    -895.766
  C     -954.114    -630.456    -894.125
  O     -955.412    -629.926    -894.336
  O     -954.939    -627.891    -895.745
  O     -955.377    -630.118    -896.955
  H     -954.117    -627.958    -896.278
  H     -954.046    -630.849    -893.132
  H     -953.387    -629.681    -894.252
  H     -953.929    -631.238    -894.832

 6  7  8  9  10  11  12  13  14  15  16  26  30  31  32  33  35 0
 6-311+G(2d,p)
 ****
 37  38 0
 6-311+G(2d,p)
 ****
 1  2  3  4  5  17  18  19  20  21  22  23  24  25 0
 3-21G
 ****
 27  28  29  34  36  39  40  41  42  43  44  45  46 0
 3-21G
 ****


