%nproc=1
%NoSave
%Mem=1900MB
#P OB98/GEN NMR

erre ene a

0 1
  C       78.333      13.541     190.831
  O       79.467      14.051     191.527
  P       80.945      13.464     191.427
  C       82.241      15.743     191.233
  O       81.969      14.561     191.975
  C       83.622      16.313     191.589
  O       83.543      16.938     192.906
  C       84.703      15.229     191.667
  O       85.941      15.616     191.079
  C       84.719      14.872     193.144
  O       85.912      14.224     193.556
  C       84.425      16.218     193.799
  N       85.208      15.795     198.825
  C       86.119      15.742     197.791
  N       87.408      15.533     198.130
  N       85.794      15.865     196.531
  C       84.465      15.991     196.325
  C       83.462      16.042     197.265
  C       83.838      15.955     198.660
  O       83.073      16.017     199.617
  N       82.232      16.186     196.677
  C       82.488      16.202     195.385
  N       83.834      16.095     195.120
  O       81.297      12.799     190.138
  O       80.985      12.335     192.578
  H       85.842      14.052     194.513
  H       81.592      11.638     192.258
  H       85.516      15.717     199.779
  H       81.745      16.303     194.602
  H       85.328      16.818     193.932
  H       83.895      14.170     193.323
  H       87.709      15.308     199.064
  H       84.411      14.347     191.088
  H       88.032      15.275     197.363
  H       83.882      17.089     190.862
  H       81.460      16.459     191.509
  H       82.155      15.556     190.162
  P       86.651      15.033     189.774
  C       87.515      17.268     188.862
  O       87.865      15.999     189.380
  O       85.604      15.274     188.589
  O       87.014      13.587     189.855
  H       85.336      14.415     188.206
  H       88.397      17.711     188.393
  H       87.182      17.917     189.676
  H       86.724      17.177     188.114
  H       77.470      14.122     191.081
  H       78.170      12.522     191.113
  H       78.507      13.596     189.777

 3  4  5  6  7  8  9  10  11  12  23  26  30  31 0
 6-311+G(2d,p)
 ****
 33  35  36  37  38 0
 6-311+G(2d,p)
 ****
 1  2  13  14  15  16  17  18  19  20  21  22  24  25 0
 3-21G
 ****
 27  28  29  32  34  39  40  41  42  43  44  45  46  47  48  49 0
 3-21G
 ****


