%nproc=1
%NoSave
%Mem=1900MB
#P OB98/GEN NMR

erre ene a

0 1
  C     -709.471     181.957    -110.126
  O     -709.290     182.251    -111.502
  H     -709.446     180.874    -109.996
  H     -710.441     182.329    -109.793
  H     -708.676     182.396    -109.517
  P     -708.990     183.770    -111.929
  C     -711.448     184.546    -111.865
  O     -710.317     184.289    -112.678
  C     -712.413     185.517    -112.567
  O     -711.804     186.831    -112.621
  C     -712.764     185.102    -114.000
  O     -714.102     185.573    -114.270
  C     -711.766     185.912    -114.807
  O     -712.137     186.019    -116.164
  C     -711.743     187.222    -114.004
  N     -710.561     188.033    -114.306
  C     -710.791     189.328    -114.774
  O     -711.924     189.776    -114.973
  N     -709.692     190.070    -115.052
  C     -708.390     189.642    -114.970
  O     -707.430     190.344    -115.266
  C     -708.208     188.265    -114.509
  C     -709.284     187.525    -114.200
  O     -707.723     183.987    -112.685
  O     -709.019     184.585    -110.555
  H     -712.254     185.130    -116.556
  H     -708.419     185.354    -110.614
  H     -709.841     191.010    -115.382
  H     -707.194     187.886    -114.440
  H     -709.177     186.509    -113.851
  H     -712.635     187.822    -114.229
  H     -710.773     185.432    -114.779
  H     -712.693     184.030    -114.172
  H     -713.318     185.613    -111.951
  H     -711.101     184.986    -110.924
  H     -711.954     183.602    -111.650
  P     -715.393     184.712    -113.869
  C     -715.337     183.473    -116.124
  O     -716.130     184.233    -115.216
  O     -716.297     185.398    -112.881
  O     -714.818     183.355    -113.249
  H     -715.445     182.984    -112.604
  H     -715.926     183.210    -116.978
  H     -714.995     182.583    -115.639
  H     -714.495     184.055    -116.436

 6  7  8  9  10  11  12  13  14  15  16  26  31  32  33  34  35 0
 6-311+G(2d,p)
 ****
 36  37 0
 6-311+G(2d,p)
 ****
 1  2  3  4  5  17  18  19  20  21  22  23  24  25 0
 3-21G
 ****
 27  28  29  30  38  39  40  41  42  43  44  45 0
 3-21G
 ****


