%nproc=1
%NoSave
%Mem=1900MB
#P OB98/GEN NMR

erre ene a

0 1
  C     -143.560      23.668     119.120
  O     -142.222      23.850     119.585
  P     -141.854      25.184     120.400
  C     -142.545      24.279     122.706
  O     -141.479      24.781     121.910
  C     -142.053      23.339     123.816
  O     -141.524      22.106     123.253
  C     -140.958      23.934     124.713
  O     -141.181      23.435     126.038
  C     -139.694      23.340     124.118
  O     -138.591      23.405     125.011
  C     -140.189      21.933     123.770
  N     -139.327      21.256     122.816
  C     -138.347      20.403     123.330
  O     -138.176      20.328     124.547
  N     -137.571      19.686     122.451
  C     -137.667      19.919     121.178
  N     -136.896      19.174     120.336
  C     -138.561      20.946     120.611
  C     -139.371      21.550     121.474
  O     -142.836      26.303     120.273
  O     -140.432      25.597     119.783
  H     -138.691      22.706     125.692
  H     -140.367      26.572     119.764
  H     -138.544      21.162     119.552
  H     -140.066      22.313     121.158
  H     -140.268      21.311     124.676
  H     -139.424      23.887     123.207
  H     -140.963      25.030     124.736
  H     -142.921      23.065     124.434
  H     -136.269      18.490     120.744
  H     -143.248      23.739     122.064
  H     -136.949      19.259     119.331
  H     -143.105      25.123     123.127
  P     -141.494      24.478     127.217
  C     -144.039      24.993     127.061
  O     -143.011      24.250     127.685
  O     -141.600      25.864     126.409
  O     -140.459      24.591     128.291
  H     -141.398      26.601     127.018
  H     -144.999      24.519     127.292
  H     -143.918      25.007     125.975
  H     -144.048      26.015     127.448
  H     -143.633      22.735     118.601
  H     -143.819      24.467     118.457
  H     -144.230      23.666     119.954

 3  4  5  6  7  8  9  10  11  12  13  23  27  28  29  30  32 0
 6-311+G(2d,p)
 ****
 34  35 0
 6-311+G(2d,p)
 ****
 1  2  14  15  16  17  18  19  20  21  22  24  25  26 0
 3-21G
 ****
 31  33  36  37  38  39  40  41  42  43  44  45  46 0
 3-21G
 ****


