%nproc=1
%NoSave
%Mem=1900MB
#P OB98/GEN NMR

erre ene a

0 1
  C      -59.545    -195.935    -195.088
  O      -58.252    -195.634    -194.603
  H      -59.976    -196.730    -194.474
  H      -59.492    -196.279    -196.124
  H      -60.187    -195.051    -195.024
  P      -57.409    -194.555    -195.444
  C      -58.661    -192.518    -194.396
  O      -58.409    -193.301    -195.552
  C      -57.682    -191.351    -194.343
  O      -57.773    -190.553    -195.544
  C      -57.931    -190.381    -193.192
  O      -57.440    -190.858    -191.951
  C      -57.152    -189.171    -193.680
  O      -55.744    -189.395    -193.491
  C      -57.519    -189.167    -195.183
  N      -58.683    -188.334    -195.488
  C      -58.453    -187.190    -196.262
  O      -57.318    -186.912    -196.647
  N      -59.513    -186.365    -196.557
  C      -60.700    -186.663    -196.127
  N      -61.711    -185.802    -196.438
  C      -60.991    -187.863    -195.325
  C      -59.951    -188.645    -195.045
  O      -57.423    -195.142    -196.933
  O      -56.049    -194.234    -194.921
  H      -55.569    -190.321    -193.740
  H      -57.033    -194.482    -197.557
  H      -61.997    -188.061    -194.979
  H      -60.088    -189.545    -194.456
  H      -56.673    -188.822    -195.789
  H      -57.407    -188.253    -193.147
  H      -58.990    -190.108    -193.116
  H      -56.664    -191.762    -194.302
  H      -61.471    -184.956    -196.936
  H      -58.538    -193.156    -193.513
  H      -62.623    -185.853    -195.999
  H      -59.685    -192.133    -194.419
  P      -58.153    -190.326    -190.612
  C      -59.803    -192.332    -190.494
  O      -59.643    -190.924    -190.606
  O      -58.380    -188.774    -190.918
  O      -57.374    -190.541    -189.352
  H      -58.227    -188.231    -190.122
  H      -60.845    -192.574    -190.504
  H      -59.368    -192.669    -189.576
  H      -59.317    -192.813    -191.317

 6  7  8  9  10  11  12  13  14  15  16  26  30  31  32  33  35 0
 6-311+G(2d,p)
 ****
 37  38 0
 6-311+G(2d,p)
 ****
 1  2  3  4  5  17  18  19  20  21  22  23  24  25 0
 3-21G
 ****
 27  28  29  34  36  39  40  41  42  43  44  45  46 0
 3-21G
 ****


