%nproc=1
%NoSave
%Mem=1900MB
#P OB98/GEN NMR

erre ene a

0 1
  C     -514.864    -497.752    -264.882
  O     -514.549    -499.053    -264.380
  P     -515.030    -499.456    -262.910
  C     -515.477    -501.990    -263.099
  O     -514.594    -500.983    -262.626
  C     -515.018    -502.524    -264.458
  O     -513.610    -502.900    -264.409
  C     -515.801    -503.777    -264.891
  O     -515.939    -503.804    -266.321
  C     -514.872    -504.908    -264.494
  O     -515.170    -506.103    -265.211
  C     -513.514    -504.283    -264.802
  N     -510.728    -508.564    -264.398
  C     -511.698    -508.199    -265.263
  N     -512.379    -507.040    -265.325
  C     -511.959    -506.191    -264.375
  C     -510.969    -506.415    -263.421
  C     -510.341    -507.669    -263.448
  N     -509.373    -508.049    -262.547
  N     -510.815    -505.311    -262.607
  C     -511.731    -504.458    -263.023
  N     -512.421    -504.927    -264.109
  O     -516.447    -499.138    -262.579
  O     -514.020    -498.638    -261.969
  H     -514.627    -506.818    -264.830
  H     -514.523    -498.259    -261.211
  H     -511.968    -508.950    -266.000
  H     -511.936    -503.498    -262.570
  H     -513.285    -504.309    -265.878
  H     -514.983    -505.113    -263.421
  H     -516.791    -503.871    -264.443
  H     -515.113    -501.729    -265.203
  H     -516.491    -501.585    -263.178
  H     -509.061    -509.006    -262.574
  H     -509.190    -507.450    -261.754
  H     -515.537    -502.790    -262.353
  P     -517.446    -503.657    -266.882
  C     -517.033    -501.690    -268.556
  O     -517.301    -503.063    -268.367
  O     -518.358    -502.925    -265.962
  O     -517.863    -505.188    -267.118
  H     -517.219    -505.713    -267.626
  H     -516.841    -501.512    -269.616
  H     -516.149    -501.384    -267.989
  H     -517.889    -501.088    -268.252
  H     -514.472    -497.647    -265.872
  H     -514.430    -497.009    -264.246
  H     -515.926    -497.626    -264.904

 3  4  5  6  7  8  9  10  11  12  22  25  29  30  31  32 0
 6-311+G(2d,p)
 ****
 33  36  37 0
 6-311+G(2d,p)
 ****
 1  2  13  14  15  16  17  18  19  20  21  23  24  26 0
 3-21G
 ****
 27  28  34  35  38  39  40  41  42  43  44  45  46  47  48 0
 3-21G
 ****


