%nproc=1
%NoSave
%Mem=1900MB
#P OB98/GEN NMR

erre ene a

0 1
  C     -245.183     521.440     117.047
  O     -244.509     522.652     116.784
  H     -244.668     520.629     116.523
  H     -246.211     521.496     116.679
  H     -245.184     521.224     118.120
  P     -244.999     523.958     117.578
  C     -245.089     524.466     120.124
  O     -244.378     523.853     119.057
  C     -244.116     525.004     121.172
  O     -243.476     523.883     121.836
  C     -243.017     525.895     120.591
  O     -242.763     526.965     121.505
  C     -241.805     524.982     120.534
  O     -240.572     525.700     120.568
  C     -242.050     524.066     121.739
  N     -241.347     522.794     121.596
  C     -240.012     522.763     122.017
  O     -239.484     523.778     122.472
  N     -239.294     521.607     121.862
  C     -239.835     520.590     121.256
  N     -239.062     519.482     121.104
  C     -241.216     520.602     120.735
  C     -241.912     521.720     120.946
  O     -246.558     523.688     117.815
  O     -244.744     525.256     116.891
  H     -240.564     526.339     119.821
  H     -247.064     524.520     117.820
  H     -241.611     519.740     120.217
  H     -242.928     521.823     120.592
  H     -241.715     524.552     122.667
  H     -241.828     524.400     119.604
  H     -243.270     526.308     119.608
  H     -244.691     525.540     121.936
  H     -238.113     519.521     121.460
  H     -245.740     523.719     120.592
  H     -239.360     518.655     120.610
  H     -245.712     525.276     119.727
  P     -243.484     528.364     121.194
  C     -245.951     529.135     121.467
  O     -244.855     528.418     122.022
  O     -243.960     528.204     119.675
  O     -242.591     529.551     121.372
  H     -243.414     528.768     119.094
  H     -246.787     529.079     122.132
  H     -246.217     528.706     120.523
  H     -245.674     530.159     121.328

 6  7  8  9  10  11  12  13  14  15  16  26  30  31  32  33  35 0
 6-311+G(2d,p)
 ****
 37  38 0
 6-311+G(2d,p)
 ****
 1  2  3  4  5  17  18  19  20  21  22  23  24  25 0
 3-21G
 ****
 27  28  29  34  36  39  40  41  42  43  44  45  46 0
 3-21G
 ****


