%nproc=1
%NoSave
%Mem=1900MB
#P OB98/GEN NMR

erre ene a

0 1
  C     -177.059    -179.865      98.977
  O     -177.609    -181.182      99.086
  P     -176.894    -182.478      98.465
  C     -175.440    -182.955     100.544
  O     -175.457    -182.668      99.148
  C     -174.874    -184.349     100.828
  O     -173.471    -184.406     100.512
  C     -174.978    -184.796     102.281
  O     -176.299    -185.188     102.603
  C     -173.954    -185.927     102.315
  O     -174.514    -187.151     101.814
  C     -172.860    -185.394     101.363
  N     -171.713    -184.849     102.078
  C     -170.780    -185.779     102.561
  O     -170.977    -186.985     102.429
  N     -169.662    -185.306     103.207
  C     -169.526    -184.032     103.419
  N     -168.393    -183.625     104.058
  C     -170.526    -183.031     103.006
  C     -171.582    -183.506     102.348
  O     -176.867    -182.502      96.972
  O     -177.738    -183.725      99.024
  H     -173.909    -187.868     102.085
  H     -177.713    -184.448      98.369
  H     -170.390    -181.984     103.227
  H     -172.363    -182.840     101.998
  H     -172.511    -186.193     100.696
  H     -173.584    -186.129     103.326
  H     -174.647    -183.987     102.945
  H     -175.393    -185.062     100.172
  H     -167.722    -184.336     104.322
  H     -176.468    -182.897     100.918
  H     -168.190    -182.657     104.268
  H     -174.839    -182.191     101.052
  P     -177.142    -184.344     103.676
  C     -178.682    -183.177     101.988
  O     -177.656    -183.011     102.950
  O     -176.473    -184.130     104.995
  O     -178.490    -185.192     103.850
  H     -178.816    -185.079     104.763
  H     -179.210    -182.227     101.872
  H     -179.396    -183.944     102.301
  H     -178.238    -183.455     101.029
  H     -177.707    -179.166      99.464
  H     -176.964    -179.603      97.944
  H     -176.095    -179.841      99.442

 3  4  5  6  7  8  9  10  11  12  13  23  27  28  29  30  32 0
 6-311+G(2d,p)
 ****
 34  35 0
 6-311+G(2d,p)
 ****
 1  2  14  15  16  17  18  19  20  21  22  24  25  26 0
 3-21G
 ****
 31  33  36  37  38  39  40  41  42  43  44  45  46 0
 3-21G
 ****


