%nproc=1
%NoSave
%Mem=1900MB
#P OB98/GEN NMR

erre ene a

0 1
  C      555.954     553.015     308.167
  O      554.989     552.281     308.885
  P      553.624     552.944     309.380
  C      552.782     554.082     311.543
  O      553.828     553.333     310.932
  C      553.255     554.621     312.908
  O      553.291     553.521     313.862
  C      554.665     555.253     312.850
  O      554.721     556.583     313.389
  C      555.518     554.219     313.556
  O      556.734     554.725     314.072
  C      554.528     553.646     314.585
  N      554.972     552.367     315.152
  C      555.159     552.325     316.538
  O      554.945     553.257     317.295
  N      555.643     551.145     317.030
  C      556.074     550.075     316.291
  O      556.592     549.088     316.794
  C      555.901     550.204     314.835
  C      555.344     551.324     314.334
  O      552.384     552.163     309.114
  O      553.652     554.389     308.677
  H      557.364     554.846     313.332
  H      554.414     554.941     308.902
  H      555.783     551.084     318.029
  H      556.244     549.375     314.222
  H      555.213     551.438     313.265
  H      554.358     554.337     315.405
  H      555.782     553.440     312.833
  H      554.995     555.362     311.811
  H      552.496     555.351     313.241
  H      551.917     553.434     311.691
  H      552.478     554.897     310.883
  P      555.777     557.702     312.929
  C      558.312     558.150     313.408
  O      557.249     557.224     313.355
  O      555.435     559.094     313.330
  O      555.810     557.562     311.329
  H      556.023     558.412     310.927
  H      559.252     557.622     313.208
  H      558.333     558.589     314.414
  H      558.167     558.950     312.668
  H      556.785     552.382     307.936
  H      556.289     553.840     308.760
  H      555.521     553.381     307.259

 3  4  5  6  7  8  9  10  11  12  13  23  28  29  30  31  32 0
 6-311+G(2d,p)
 ****
 33  34 0
 6-311+G(2d,p)
 ****
 1  2  14  15  16  17  18  19  20  21  22  24  25  26  27 0
 3-21G
 ****
 35  36  37  38  39  40  41  42  43  44  45 0
 3-21G
 ****


