%nproc=1
%NoSave
%Mem=1900MB
#P OB98/GEN NMR

erre ene a

0 1
  C      247.774     311.522    -603.939
  O      246.371     311.298    -603.763
  P      245.333     312.001    -604.760
  C      243.152     311.326    -605.979
  O      244.004     311.103    -604.864
  C      242.168     310.161    -606.126
  O      242.821     308.976    -606.657
  C      241.571     309.710    -604.794
  O      240.676     310.598    -604.166
  C      241.068     308.316    -605.116
  O      239.778     308.355    -605.736
  C      242.135     307.818    -606.126
  N      243.082     306.868    -605.524
  C      242.766     305.524    -605.683
  O      241.751     305.125    -606.240
  N      243.663     304.636    -605.132
  C      244.782     304.972    -604.428
  O      245.534     304.135    -603.939
  C      245.046     306.410    -604.272
  C      244.191     307.282    -604.825
  O      245.889     312.460    -606.064
  O      244.821     313.263    -603.894
  H      239.589     307.463    -606.074
  H      244.754     314.031    -604.500
  H      243.456     303.659    -605.234
  H      245.924     306.705    -603.723
  H      244.368     308.351    -604.718
  H      241.650     307.320    -606.982
  H      240.965     307.697    -604.217
  H      242.406     309.588    -604.081
  H      241.387     310.444    -606.835
  H      243.753     311.433    -606.892
  H      242.630     312.276    -605.846
  P      241.053     311.454    -602.864
  C      239.892     313.642    -602.084
  O      239.753     312.274    -602.402
  O      242.346     312.192    -602.884
  O      241.130     310.302    -601.738
  H      241.811     310.557    -601.085
  H      238.912     314.030    -601.773
  H      240.230     314.211    -602.946
  H      240.595     313.771    -601.255
  H      248.318     310.981    -603.193
  H      247.983     312.567    -603.845
  H      248.070     311.185    -604.910

 3  4  5  6  7  8  9  10  11  12  13  23  28  29  30  31  32 0
 6-311+G(2d,p)
 ****
 33  34 0
 6-311+G(2d,p)
 ****
 1  2  14  15  16  17  18  19  20  21  22  24  25  26  27 0
 3-21G
 ****
 35  36  37  38  39  40  41  42  43  44  45 0
 3-21G
 ****


