%nproc=1
%NoSave
%Mem=1900MB
#P OB98/GEN NMR

erre ene a

0 1
  C      323.951      58.666    -178.100
  O      323.881      58.252    -176.751
  H      324.997      58.644    -178.419
  H      323.579      59.689    -178.198
  H      323.375      57.996    -178.743
  P      322.440      58.019    -176.088
  C      321.886      60.278    -174.964
  O      321.693      59.436    -176.093
  C      321.056      61.561    -175.095
  O      321.538      62.309    -176.254
  C      319.545      61.320    -175.309
  O      318.857      62.440    -174.727
  C      319.465      61.346    -176.825
  O      318.142      61.420    -177.295
  C      320.393      62.538    -177.107
  N      320.808      62.693    -178.494
  C      319.967      63.408    -179.344
  O      318.900      63.917    -179.007
  N      320.392      63.520    -180.642
  C      321.554      63.015    -181.155
  O      321.892      63.176    -182.324
  C      322.394      62.265    -180.212
  C      321.994      62.145    -178.945
  O      322.438      57.306    -174.776
  O      321.640      57.196    -177.207
  H      321.616      56.251    -176.963
  H      317.577      60.824    -176.754
  H      319.799      64.038    -181.269
  H      323.316      61.843    -180.590
  H      322.597      61.605    -178.219
  H      319.922      63.464    -176.765
  H      319.877      60.424    -177.235
  H      319.189      60.397    -174.850
  H      321.235      62.189    -174.215
  H      322.949      60.529    -174.900
  H      321.594      59.734    -174.059
  P      317.913      62.324    -173.433
  C      315.542      62.307    -174.475
  O      316.577      61.544    -173.860
  O      317.658      63.627    -172.753
  O      318.662      61.296    -172.457
  H      318.407      61.481    -171.533
  H      314.716      61.667    -174.706
  H      315.913      62.750    -175.376
  H      315.220      63.077    -173.805

 6  7  8  9  10  11  12  13  14  15  16  27  31  32  33  34  35 0
 6-311+G(2d,p)
 ****
 36  37 0
 6-311+G(2d,p)
 ****
 1  2  3  4  5  17  18  19  20  21  22  23  24  25 0
 3-21G
 ****
 26  28  29  30  38  39  40  41  42  43  44  45 0
 3-21G
 ****


