%nproc=1
%NoSave
%Mem=1900MB
#P OB98/GEN NMR

erre ene a

0 1
  C      322.789      62.984    1157.573
  O      323.653      63.613    1158.500
  P      323.754      63.067    1160.007
  C      321.430      63.878    1160.793
  O      322.848      64.040    1160.899
  C      320.725      64.878    1161.695
  O      321.211      64.798    1163.062
  C      320.949      66.354    1161.297
  O      320.407      66.773    1160.058
  C      320.453      67.056    1162.537
  O      319.031      67.179    1162.584
  C      320.943      66.097    1163.655
  N      322.128      66.606    1164.368
  C      321.867      67.362    1165.508
  O      320.738      67.590    1165.933
  N      322.984      67.879    1166.150
  C      324.269      67.757    1165.739
  O      325.212      68.273    1166.321
  C      324.468      66.961    1164.502
  C      323.424      66.428    1163.880
  O      325.160      62.858    1160.516
  O      322.867      61.726    1159.978
  H      318.819      67.794    1163.313
  H      321.931      61.852    1159.724
  H      322.810      68.425    1166.974
  H      325.486      66.842    1164.168
  H      323.525      65.844    1162.981
  H      320.149      65.940    1164.415
  H      320.868      68.081    1162.611
  H      322.034      66.524    1161.231
  H      319.643      64.624    1161.721
  H      321.183      62.874    1161.115
  H      321.112      63.980    1159.748
  P      321.317      67.093    1158.786
  C      322.397      69.156    1159.939
  O      321.687      68.654    1158.807
  O      320.843      66.538    1157.468
  O      322.714      66.401    1159.189
  H      323.155      66.076    1158.373
  H      322.518      70.243    1159.828
  H      323.378      68.677    1160.014
  H      321.830      68.964    1160.844
  H      322.856      63.482    1156.629
  H      321.783      63.034    1157.933
  H      323.075      61.960    1157.457

 3  4  5  6  7  8  9  10  11  12  13  23  28  29  30  31  32 0
 6-311+G(2d,p)
 ****
 33  34 0
 6-311+G(2d,p)
 ****
 1  2  14  15  16  17  18  19  20  21  22  24  25  26  27 0
 3-21G
 ****
 35  36  37  38  39  40  41  42  43  44  45 0
 3-21G
 ****


