%nproc=1
%NoSave
%Mem=1900MB
#P OB98/GEN NMR

erre ene a

0 1
  C     1144.326    -360.477     777.684
  O     1143.155    -361.060     777.131
  H     1145.206    -361.005     777.265
  H     1144.335    -360.611     778.769
  H     1144.388    -359.426     777.425
  P     1141.755    -360.453     777.645
  C     1141.334    -358.454     776.028
  O     1141.040    -359.813     776.346
  C     1141.638    -358.306     774.537
  O     1142.752    -359.163     774.155
  C     1140.483    -358.674     773.618
  O     1139.576    -357.591     773.480
  C     1141.207    -359.005     772.308
  O     1141.555    -357.792     771.602
  C     1142.470    -359.708     772.831
  N     1141.162    -363.862     770.245
  C     1141.205    -362.534     769.864
  N     1140.803    -362.272     768.594
  N     1141.603    -361.546     770.619
  C     1141.977    -361.958     771.849
  C     1141.977    -363.253     772.379
  C     1141.559    -364.320     771.507
  O     1141.573    -365.508     771.781
  N     1142.422    -363.262     773.676
  C     1142.640    -361.972     773.971
  N     1142.350    -361.149     772.898
  O     1142.203    -359.151     778.486
  O     1140.915    -361.373     778.456
  H     1140.756    -357.274     771.483
  H     1141.552    -359.007     779.198
  H     1140.866    -364.557     769.608
  H     1143.002    -361.615     774.920
  H     1143.339    -359.480     772.199
  H     1140.591    -359.612     771.659
  H     1140.180    -362.906     768.114
  H     1139.953    -359.573     773.977
  H     1140.811    -361.290     768.305
  H     1141.958    -357.275     774.353
  H     1142.211    -358.132     776.602
  H     1140.490    -357.827     776.307
  P     1138.080    -357.924     772.962
  C     1136.703    -357.889     775.167
  O     1137.059    -357.204     773.959
  O     1137.910    -359.482     773.305
  O     1137.854    -357.660     771.501
  H     1137.160    -359.849     772.804
  H     1136.018    -357.289     775.729
  H     1137.583    -358.065     775.750
  H     1136.242    -358.824     774.924

 6  7  8  9  10  11  12  13  14  15  26  29  33  34 0
 6-311+G(2d,p)
 ****
 36  38  39  40  41 0
 6-311+G(2d,p)
 ****
 1  2  3  4  5  16  17  18  19  20  21  22  23  24  25 0
 3-21G
 ****
 27  28  30  31  32  35  37  42  43  44  45  46  47 0
 3-21G
 ****
 48  49 0
 3-21G
 ****


