%nproc=1
%NoSave
%Mem=1900MB
#P OB98/GEN NMR

erre ene a

0 1
  C     -244.655     236.195    -226.699
  O     -244.169     237.445    -226.188
  P     -245.180     238.688    -226.145
  C     -245.419     239.058    -223.582
  O     -244.894     239.533    -224.813
  C     -244.441     239.339    -222.439
  O     -243.384     238.358    -222.382
  C     -243.735     240.687    -222.555
  O     -244.549     241.745    -222.070
  C     -242.541     240.475    -221.639
  O     -242.945     240.645    -220.265
  C     -242.181     239.008    -221.906
  N     -239.459     235.588    -224.585
  C     -240.426     235.440    -223.649
  N     -241.090     236.400    -222.965
  C     -240.682     237.623    -223.347
  C     -239.709     237.931    -224.286
  C     -239.083     236.848    -224.921
  N     -238.102     237.005    -225.875
  N     -239.554     239.296    -224.400
  C     -240.429     239.807    -223.553
  N     -241.129     238.833    -222.890
  O     -246.591     237.994    -225.850
  O     -245.212     239.478    -227.413
  H     -243.635     239.979    -220.087
  H     -247.301     238.481    -226.310
  H     -240.698     234.419    -223.414
  H     -240.592     240.862    -223.394
  H     -241.860     238.484    -220.993
  H     -241.738     241.188    -221.823
  H     -243.394     240.861    -223.580
  H     -244.996     239.297    -221.493
  H     -245.617     237.985    -223.648
  H     -237.718     236.184    -226.311
  H     -237.835     237.938    -226.151
  H     -246.386     239.539    -223.395
  P     -244.045     243.245    -222.345
  C     -246.194     244.135    -223.495
  O     -245.366     244.152    -222.354
  O     -243.590     243.194    -223.882
  O     -242.941     243.695    -221.452
  H     -242.865     243.835    -224.038
  H     -247.169     244.550    -223.230
  H     -246.334     243.117    -223.869
  H     -245.752     244.752    -224.289
  H     -243.872     235.467    -226.665
  H     -244.977     236.325    -227.711
  H     -245.478     235.862    -226.102

 3  4  5  6  7  8  9  10  11  12  22  25  29  30  31  32 0
 6-311+G(2d,p)
 ****
 33  36  37 0
 6-311+G(2d,p)
 ****
 1  2  13  14  15  16  17  18  19  20  21  23  24  26 0
 3-21G
 ****
 27  28  34  35  38  39  40  41  42  43  44  45  46  47  48 0
 3-21G
 ****


