%nproc=1
%NoSave
%Mem=1900MB
#P OB98/GEN NMR

erre ene a

0 1
  C      125.050     121.426    -583.090
  O      124.341     121.543    -581.870
  P      123.131     120.517    -581.615
  C      124.589     118.370    -581.434
  O      123.630     119.108    -582.191
  C      123.973     117.070    -580.918
  O      123.014     117.359    -579.884
  C      123.221     116.278    -581.971
  O      124.114     115.583    -582.807
  C      122.351     115.378    -581.099
  O      123.061     114.181    -580.735
  C      122.080     116.261    -579.859
  N      120.703     116.732    -579.804
  C      119.746     115.764    -579.460
  O      120.088     114.596    -579.255
  N      118.424     116.143    -579.411
  C      118.094     117.368    -579.670
  N      116.773     117.683    -579.598
  C      119.068     118.406    -580.052
  C      120.345     118.022    -580.100
  O      122.031     120.987    -582.675
  O      122.608     120.508    -580.216
  H      122.465     113.700    -580.119
  H      121.134     120.747    -582.375
  H      118.741     119.418    -580.266
  H      121.127     118.721    -580.376
  H      122.283     115.695    -578.940
  H      121.443     115.057    -581.623
  H      122.578     116.950    -582.562
  H      124.777     116.462    -580.477
  H      116.126     116.951    -579.342
  H      124.917     118.973    -580.577
  H      116.417     118.612    -579.767
  H      125.458     118.162    -582.068
  P      123.719     115.411    -584.351
  C      124.553     117.682    -585.185
  O      123.423     116.900    -584.871
  O      122.239     114.797    -584.247
  O      124.618     114.579    -585.200
  H      121.921     114.547    -585.136
  H      124.214     118.605    -585.668
  H      125.208     117.152    -585.876
  H      125.096     117.955    -584.274
  H      125.822     122.166    -583.126
  H      124.377     121.573    -583.909
  H      125.486     120.451    -583.157

 3  4  5  6  7  8  9  10  11  12  13  21  23  27  28  29  30  32 0
 6-311+G(2d,p)
 ****
 34  35 0
 6-311+G(2d,p)
 ****
 1  2  14  15  16  17  18  19  20  22  24  25  26 0
 3-21G
 ****
 31  33  36  37  38  39  40  41  42  43  44  45  46 0
 3-21G
 ****


