%nproc=1
%NoSave
%Mem=1900MB
#P OB98/GEN NMR

erre ene a

0 1
  C      -63.398     268.278     410.091
  O      -62.861     267.727     411.270
  P      -63.222     268.233     412.738
  C      -60.789     268.697     413.578
  O      -61.973     267.926     413.703
  C      -59.853     268.466     414.775
  O      -58.636     269.226     414.565
  C      -60.483     268.975     416.085
  O      -60.276     268.117     417.200
  C      -59.946     270.394     416.190
  O      -59.998     270.933     417.503
  C      -58.545     270.248     415.591
  N      -56.849     274.962     416.430
  C      -57.112     273.957     417.341
  N      -57.088     274.313     418.643
  N      -57.400     272.726     416.999
  C      -57.497     272.547     415.660
  C      -57.258     273.464     414.665
  C      -56.907     274.813     415.057
  O      -56.775     275.763     414.281
  N      -57.518     272.945     413.419
  C      -57.948     271.723     413.666
  N      -57.980     271.449     415.013
  O      -64.592     267.920     413.238
  O      -63.119     269.839     412.562
  H      -59.656     271.840     417.463
  H      -63.798     270.235     413.148
  H      -56.716     275.914     416.755
  H      -58.271     271.015     412.907
  H      -57.826     269.899     416.337
  H      -60.570     271.039     415.558
  H      -57.019     275.282     418.931
  H      -61.578     269.016     415.997
  H      -57.518     273.674     419.310
  H      -59.582     267.408     414.826
  H      -61.102     269.742     413.537
  H      -60.276     268.463     412.632
  P      -61.332     267.629     418.292
  C      -61.403     269.688     419.818
  O      -60.997     268.339     419.685
  O      -60.956     266.096     418.578
  O      -62.764     267.734     417.871
  H      -61.770     265.569     418.683
  H      -60.888     270.129     420.674
  H      -62.481     269.727     419.997
  H      -61.153     270.260     418.918
  H      -62.998     267.764     409.242
  H      -63.142     269.315     410.033
  H      -64.463     268.174     410.101

 3  4  5  6  7  8  9  10  11  12  23  26  30  31 0
 6-311+G(2d,p)
 ****
 33  35  36  37  38 0
 6-311+G(2d,p)
 ****
 1  2  13  14  15  16  17  18  19  20  21  22  24  25 0
 3-21G
 ****
 27  28  29  32  34  39  40  41  42  43  44  45  46  47  48  49 0
 3-21G
 ****


