%nproc=1
%NoSave
%Mem=1900MB
#P OB98/GEN NMR

erre ene a

0 1
  C      -74.178    -382.209     110.764
  O      -72.840    -381.722     110.767
  P      -71.883    -382.172     109.559
  C      -71.197    -384.077     111.184
  O      -71.524    -383.708     109.846
  C      -71.857    -385.398     111.553
  O      -73.258    -385.351     111.217
  C      -71.303    -386.608     110.821
  O      -70.105    -387.082     111.409
  C      -72.439    -387.607     111.008
  O      -72.334    -388.222     112.301
  C      -73.681    -386.706     110.934
  N      -76.240    -389.533     107.598
  C      -75.735    -389.868     108.837
  N      -75.965    -391.132     109.261
  N      -75.061    -389.044     109.594
  C      -74.938    -387.804     109.062
  C      -75.395    -387.355     107.844
  C      -76.097    -388.292     106.993
  O      -76.513    -388.070     105.857
  N      -75.093    -386.028     107.655
  C      -74.494    -385.668     108.775
  N      -74.346    -386.723     109.646
  O      -70.517    -381.405     109.879
  O      -72.395    -381.856     108.194
  H      -71.552    -388.803     112.280
  H      -70.011    -381.272     109.052
  H      -76.768    -390.202     107.067
  H      -74.145    -384.671     108.993
  H      -74.416    -386.983     111.706
  H      -72.419    -388.414     110.265
  H      -76.589    -391.766     108.786
  H      -71.171    -386.396     109.751
  H      -75.637    -391.386     110.183
  H      -71.773    -385.530     112.638
  H      -71.550    -383.293     111.868
  H      -70.107    -384.149     111.273
  P      -68.795    -387.088     110.474
  C      -69.544    -389.386     109.515
  O      -69.159    -388.048     109.246
  O      -67.737    -387.934     111.330
  O      -68.289    -385.728     110.124
  H      -66.828    -387.674     111.087
  H      -70.139    -389.452     110.437
  H      -68.652    -390.006     109.613
  H      -70.149    -389.754     108.686
  H      -74.697    -381.832     111.621
  H      -74.168    -383.279     110.795
  H      -74.674    -381.882     109.874

 3  4  5  6  7  8  9  10  11  12  23  26  30  31  33  0
 6-311+G(2d,p)
 ****
 35  36  37  38 0
 6-311+G(2d,p)
 ****
 1  2  13  14  15  16  17  18  19  20  21  22  24  25  27  28  29 0
 3-21G
 ****
 32  34  39  40  41  42  43  44  45  46  47  48  49 0
 3-21G
 ****


