%nproc=1
%NoSave
%Mem=1900MB
#P OB98/GEN NMR

erre ene a

0 1
  C      -54.800     176.578       2.152
  O      -53.405     176.835       2.168
  P      -52.828     178.165       2.850
  C      -52.352     180.572       2.079
  O      -52.999     179.342       1.771
  C      -52.585     181.596       0.971
  O      -51.855     181.181      -0.209
  C      -54.050     181.738       0.575
  O      -54.310     183.106       0.248
  C      -54.179     180.913      -0.693
  O      -55.262     181.384      -1.513
  C      -52.784     181.078      -1.304
  N      -52.957     179.032      -6.008
  C      -53.416     180.206      -5.523
  N      -53.359     180.674      -4.257
  C      -52.698     179.813      -3.466
  C      -52.169     178.582      -3.820
  C      -52.320     178.191      -5.161
  N      -51.840     176.999      -5.657
  N      -51.589     177.967      -2.727
  C      -51.748     178.821      -1.741
  N      -52.403     179.957      -2.139
  O      -51.456     178.039       3.416
  O      -53.902     178.542       3.970
  H      -55.400     180.718      -2.218
  H      -53.455     178.885       4.767
  H      -53.900     180.856      -6.247
  H      -51.421     178.664      -0.724
  H      -52.710     181.996      -1.900
  H      -54.384     179.869      -0.433
  H      -54.738     181.404       1.359
  H      -52.172     182.559       1.291
  H      -51.279     180.382       2.173
  H      -51.886     176.860      -6.654
  H      -51.218     176.456      -5.073
  H      -52.723     180.948       3.038
  P      -55.775     183.655       0.632
  C      -58.149     182.734       0.092
  O      -56.772     182.468       0.227
  O      -56.041     185.001       0.043
  O      -55.709     183.624       2.232
  H      -55.054     182.966       2.553
  H      -58.664     181.799      -0.147
  H      -58.319     183.441      -0.724
  H      -58.556     183.134       1.025
  H      -54.986     175.648       1.656
  H      -55.302     177.367       1.632
  H      -55.164     176.525       3.157

 3  4  5  6  7  8  9  10  11  12  22  25  29  30  31  32 0
 6-311+G(2d,p)
 ****
 33  36  37 0
 6-311+G(2d,p)
 ****
 1  2  13  14  15  16  17  18  19  20  21  23  24  26 0
 3-21G
 ****
 27  28  34  35  38  39  40  41  42  43  44  45  46  47  48 0
 3-21G
 ****


