%nproc=1
%NoSave
%Mem=1900MB
#P OB98/GEN NMR

erre ene a

0 1
  C     -111.304      98.651     118.496
  O     -111.240      98.263     117.133
  P     -109.892      97.662     116.494
  C     -111.160      95.453     116.025
  O     -110.033      96.069     116.628
  C     -110.745      94.165     115.309
  O     -110.037      93.318     116.252
  C     -111.913      93.350     114.740
  O     -111.459      92.743     113.525
  C     -112.144      92.298     115.811
  O     -112.822      91.152     115.315
  C     -110.707      92.040     116.277
  N     -110.647      91.438     117.607
  C     -110.823      90.057     117.705
  O     -111.046      89.375     116.704
  N     -110.743      89.471     118.945
  C     -110.591      90.208     120.001
  N     -110.457      89.574     121.200
  C     -110.509      91.683     119.952
  C     -110.522      92.219     118.735
  O     -108.630      98.226     117.051
  O     -110.071      97.879     114.920
  H     -112.801      90.460     116.003
  H     -109.785      98.779     114.621
  H     -110.410      92.256     120.865
  H     -110.443      93.289     118.600
  H     -110.187      91.397     115.558
  H     -112.752      92.725     116.618
  H     -112.794      93.964     114.529
  H     -110.036      94.428     114.511
  H     -110.345      88.567     121.173
  H     -111.581      96.146     115.291
  H     -110.021      90.039     121.989
  H     -111.922      95.251     116.786
  P     -112.558      92.259     112.457
  C     -112.844      94.523     111.218
  O     -113.432      93.533     112.036
  O     -113.582      91.445     113.393
  O     -112.070      91.375     111.355
  H     -114.052      90.785     112.851
  H     -113.585      95.308     111.028
  H     -112.538      94.094     110.258
  H     -111.982      94.970     111.718
  H     -112.283      99.022     118.716
  H     -110.582      99.418     118.683
  H     -111.095      97.806     119.118

 3  4  5  6  7  8  9  10  11  12  13  23  27  28  29  30  32 0
 6-311+G(2d,p)
 ****
 34  35 0
 6-311+G(2d,p)
 ****
 1  2  14  15  16  17  18  19  20  21  22  24  25  26 0
 3-21G
 ****
 31  33  36  37  38  39  40  41  42  43  44  45  46 0
 3-21G
 ****


