%nproc=1
%NoSave
%Mem=1900MB
#P OB98/GEN NMR

erre ene a

0 1
  C      -60.879      18.609     -71.634
  O      -62.002      18.533     -70.771
  P      -61.979      19.247     -69.335
  C      -64.201      20.519     -69.566
  O      -63.512      19.463     -68.908
  C      -65.691      20.200     -69.683
  O      -65.873      19.185     -70.700
  C      -66.300      19.669     -68.391
  O      -67.639      20.158     -68.276
  C      -66.359      18.164     -68.595
  O      -67.399      17.571     -67.798
  C      -66.570      18.073     -70.109
  N      -67.648      13.241     -71.471
  C      -68.423      14.224     -70.965
  N      -68.065      15.476     -70.602
  C      -66.765      15.689     -70.863
  C      -65.852      14.785     -71.383
  C      -66.338      13.504     -71.691
  N      -65.548      12.505     -72.220
  N      -64.598      15.358     -71.479
  C      -64.759      16.589     -71.047
  N      -66.053      16.841     -70.673
  O      -61.134      20.471     -69.253
  O      -61.480      18.111     -68.329
  H      -67.300      16.599     -67.873
  H      -60.890      18.493     -67.651
  H      -69.471      13.972     -70.828
  H      -63.977      17.329     -70.974
  H      -67.632      18.158     -70.375
  H      -65.406      17.714     -68.293
  H      -65.722      19.944     -67.502
  H      -66.217      21.101     -70.020
  H      -63.778      20.634     -70.569
  H      -66.009      11.662     -72.523
  H      -64.623      12.752     -72.545
  H      -64.047      21.453     -69.017
  P      -67.980      20.958     -66.919
  C      -69.609      22.777     -67.819
  O      -69.452      21.546     -67.153
  O      -66.906      21.930     -66.558
  O      -68.168      19.749     -65.884
  H      -68.425      18.919     -66.343
  H      -70.675      23.027     -67.846
  H      -69.245      22.702     -68.847
  H      -69.074      23.572     -67.291
  H      -61.086      18.074     -72.537
  H      -60.028      18.176     -71.151
  H      -60.675      19.634     -71.865

 3  4  5  6  7  8  9  10  11  12  22  25  29  30  31  32 0
 6-311+G(2d,p)
 ****
 33  36  37 0
 6-311+G(2d,p)
 ****
 1  2  13  14  15  16  17  18  19  20  21  23  24  26 0
 3-21G
 ****
 27  28  34  35  38  39  40  41  42  43  44  45  46  47  48 0
 3-21G
 ****


