%nproc=1
%NoSave
%Mem=1900MB
#P OB98/GEN NMR

erre ene a

0 1
  C      357.133     928.182    -803.396
  O      356.039     928.654    -802.636
  H      356.758     927.840    -804.364
  H      357.611     927.347    -802.884
  H      357.858     928.982    -803.558
  P      356.366     929.359    -801.233
  C      356.841     931.438    -802.719
  O      357.209     930.689    -801.564
  C      356.470     932.864    -802.326
  O      355.271     932.839    -801.515
  C      357.557     933.581    -801.535
  O      357.605     934.964    -801.948
  C      357.075     933.518    -800.099
  O      357.598     934.562    -799.276
  C      355.550     933.545    -800.285
  N      354.853     932.946    -799.152
  C      354.966     933.623    -797.923
  O      355.639     934.644    -797.842
  N      354.375     933.071    -796.820
  C      353.804     931.903    -796.897
  N      353.265     931.400    -795.752
  C      353.713     931.136    -798.158
  C      354.262     931.711    -799.230
  O      357.467     928.396    -800.578
  O      355.191     929.586    -800.337
  H      357.086     934.563    -798.428
  H      357.391     928.387    -799.599
  H      353.250     930.167    -798.165
  H      354.248     931.214    -800.197
  H      355.201     934.581    -800.413
  H      357.382     932.551    -799.655
  H      358.552     933.147    -801.659
  H      356.226     933.424    -803.244
  H      353.352     931.956    -794.913
  H      355.972     930.963    -803.186
  H      352.830     930.493    -795.693
  H      357.676     931.432    -803.441
  P      358.981     935.482    -802.557
  C      357.860     937.184    -804.192
  O      358.692     936.040    -804.054
  O      359.819     934.145    -802.823
  O      359.723     936.424    -801.671
  H      360.544     934.068    -802.170
  H      357.762     937.431    -805.228
  H      358.297     938.008    -803.668
  H      356.894     936.974    -803.783

 6  7  8  9  10  11  12  13  14  15  16  26  30  31  32  33  35 0
 6-311+G(2d,p)
 ****
 37  38 0
 6-311+G(2d,p)
 ****
 1  2  3  4  5  17  18  19  20  21  22  23  24  25 0
 3-21G
 ****
 27  28  29  34  36  39  40  41  42  43  44  45  46 0
 3-21G
 ****


