%nproc=1
%NoSave
%Mem=1900MB
#P OB98/GEN NMR

erre ene a

0 1
  C      -61.893      49.208     122.636
  O      -61.550      47.951     122.088
  H      -62.089      49.080     123.703
  H      -62.795      49.596     122.160
  H      -61.069      49.917     122.514
  P      -61.215      47.862     120.521
  C      -62.487      45.915     119.373
  O      -61.376      46.300     120.172
  C      -62.190      44.601     118.658
  O      -60.977      44.691     117.878
  C      -61.966      43.405     119.575
  O      -63.154      42.912     120.172
  C      -61.368      42.422     118.583
  O      -62.405      41.890     117.744
  C      -60.417      43.349     117.788
  N      -59.047      43.328     118.303
  C      -58.278      42.203     117.980
  O      -58.746      41.290     117.303
  N      -56.990      42.127     118.458
  C      -56.524      43.072     119.213
  N      -55.248      42.939     119.665
  C      -57.308      44.261     119.595
  C      -58.546      44.327     119.111
  O      -59.926      48.488     120.091
  O      -62.501      48.487     119.801
  H      -62.864      42.649     117.341
  H      -62.340      48.466     118.826
  H      -56.884      45.007     120.251
  H      -59.189      45.167     119.348
  H      -60.404      43.073     116.726
  H      -60.872      41.576     119.063
  H      -61.211      43.634     120.340
  H      -63.013      44.420     117.952
  H      -54.732      42.112     119.389
  H      -62.687      46.718     118.655
  H      -54.829      43.589     120.320
  H      -63.370      45.774     120.003
  P      -63.009      42.204     121.609
  C      -64.509      40.241     120.755
  O      -64.265      41.220     121.754
  O      -63.322      43.393     122.629
  O      -61.685      41.556     121.867
  H      -62.494      43.779     122.977
  H      -65.382      39.678     121.013
  H      -63.668      39.584     120.687
  H      -64.662      40.724     119.812

 6  7  8  9  10  11  12  13  14  15  16  26  30  31  32  33  35 0
 6-311+G(2d,p)
 ****
 37  38 0
 6-311+G(2d,p)
 ****
 1  2  3  4  5  17  18  19  20  21  22  23  24  25 0
 3-21G
 ****
 27  28  29  34  36  39  40  41  42  43  44  45  46 0
 3-21G
 ****


