%nproc=1
%NoSave
%Mem=1900MB
#P OB98/GEN NMR

erre ene a

0 1
  C        8.596     362.130    -754.035
  O        9.032     361.661    -752.771
  H        7.928     361.384    -754.470
  H        9.443     362.277    -754.705
  H        8.040     363.070    -753.922
  P       10.061     362.562    -751.938
  C       12.268     361.333    -752.501
  O       11.266     361.588    -751.520
  C       13.324     360.378    -751.939
  O       13.868     360.890    -750.709
  C       12.794     358.974    -751.624
  O       12.733     358.184    -752.799
  C       13.858     358.492    -750.653
  O       15.051     358.114    -751.381
  C       14.133     359.770    -749.834
  N       13.689     358.590    -744.912
  C       14.601     358.153    -745.844
  N       15.503     357.246    -745.420
  N       14.616     358.553    -747.093
  C       13.615     359.399    -747.389
  C       12.639     359.904    -746.560
  C       12.669     359.500    -745.171
  O       11.896     359.895    -744.302
  N       11.735     360.680    -747.242
  C       12.189     360.686    -748.480
  N       13.327     359.923    -748.633
  O        9.481     363.339    -750.797
  O       10.729     363.515    -753.038
  H       15.728     357.872    -750.719
  H       10.247     364.360    -753.119
  H       13.715     358.246    -743.967
  H       11.744     361.235    -749.307
  H       15.185     359.835    -749.518
  H       13.544     357.623    -750.078
  H       15.442     356.790    -744.523
  H       11.834     359.012    -751.103
  H       16.146     356.861    -746.107
  H       14.151     360.324    -752.670
  H       12.727     362.291    -752.764
  H       11.813     360.891    -753.396
  P       11.635     357.017    -752.977
  C       13.215     355.130    -753.783
  O       12.216     356.068    -754.141
  O       10.240     357.493    -753.190
  O       11.835     356.105    -751.673
  H       11.324     356.429    -750.893
  H       13.506     354.572    -754.648
  H       12.828     354.463    -753.041
  H       14.065     355.647    -753.389

 6  7  8  9  10  11  12  13  14  15  26  29  33  34 0
 6-311+G(2d,p)
 ****
 36  38  39  40  41 0
 6-311+G(2d,p)
 ****
 1  2  3  4  5  16  17  18  19  20  21  22  23  24  25 0
 3-21G
 ****
 27  28  30  31  32  35  37  42  43  44  45  46  47 0
 3-21G
 ****
 48  49 0
 3-21G
 ****


