%nproc=1
%NoSave
%Mem=1900MB
#P OB98/GEN NMR

erre ene a

0 1
  C      442.933     441.639    -253.845
  O      442.264     441.850    -252.616
  H      442.821     442.532    -254.461
  H      442.484     440.789    -254.369
  H      443.997     441.455    -253.672
  P      442.455     440.723    -251.487
  C      442.405     442.009    -249.199
  O      443.171     441.460    -250.256
  C      442.480     443.537    -249.214
  O      441.879     444.018    -250.443
  C      441.749     444.201    -248.043
  O      442.482     445.370    -247.661
  C      440.422     444.618    -248.652
  O      439.810     445.684    -247.928
  C      440.843     444.963    -250.090
  N      439.724     444.906    -251.025
  C      439.449     446.072    -251.744
  O      440.126     447.087    -251.564
  N      438.391     446.085    -252.618
  C      437.629     445.041    -252.716
  N      436.582     445.117    -253.580
  C      437.854     443.798    -251.944
  C      438.911     443.803    -251.132
  O      443.618     439.820    -252.118
  O      441.211     439.975    -251.147
  H      438.845     445.669    -248.109
  H      444.344     440.340    -252.501
  H      437.185     442.957    -252.053
  H      439.157     442.930    -250.537
  H      441.282     445.967    -250.131
  H      439.726     443.769    -248.651
  H      441.637     443.540    -247.185
  H      443.536     443.834    -249.238
  H      436.453     445.993    -254.072
  H      442.769     441.637    -248.232
  H      435.895     444.389    -253.697
  H      441.369     441.678    -249.321
  P      443.644     445.247    -246.569
  C      445.627     446.289    -247.864
  O      445.058     445.109    -247.312
  O      443.405     444.267    -245.467
  O      443.721     446.740    -245.971
  H      443.845     446.668    -245.007
  H      446.563     446.052    -248.326
  H      445.785     447.006    -247.086
  H      444.962     446.697    -248.596

 6  7  8  9  10  11  12  13  14  15  16  26  30  31  32  33  35 0
 6-311+G(2d,p)
 ****
 37  38 0
 6-311+G(2d,p)
 ****
 1  2  3  4  5  17  18  19  20  21  22  23  24  25 0
 3-21G
 ****
 27  28  29  34  36  39  40  41  42  43  44  45  46 0
 3-21G
 ****


