%nproc=1
%NoSave
%Mem=1900MB
#P OB98/GEN NMR

erre ene a

0 1
  C        9.732     233.535      58.138
  O       10.580     234.364      57.342
  P       11.866     233.751      56.600
  C       14.188     232.858      57.210
  O       13.064     233.603      57.663
  C       15.425     233.005      58.106
  O       16.093     234.270      57.863
  C       15.146     232.928      59.609
  O       16.299     232.312      60.193
  C       15.057     234.393      60.000
  O       15.222     234.599      61.397
  C       16.146     234.996      59.105
  N       15.965     236.432      58.901
  C       16.583     237.284      59.820
  O       17.197     236.821      60.783
  N       16.449     238.643      59.657
  C       15.684     239.104      58.716
  N       15.569     240.456      58.620
  C       14.942     238.238      57.776
  C       15.137     236.928      57.921
  O       12.247     234.440      55.330
  O       11.447     232.228      56.307
  H       14.411     234.291      61.853
  H       11.898     231.920      55.497
  H       14.293     238.670      57.023
  H       14.643     236.207      57.277
  H       17.141     234.834      59.543
  H       14.071     234.788      59.721
  H       14.238     232.368      59.853
  H       16.133     232.216      57.819
  H       16.077     241.015      59.299
  H       14.438     233.190      56.193
  H       14.914     240.915      58.001
  H       13.907     231.798      57.140
  P       16.181     231.160      61.299
  C       15.959     231.070      63.850
  O       15.883     231.892      62.695
  O       17.326     230.201      61.331
  O       14.800     230.413      60.972
  H       14.794     229.540      61.410
  H       15.949     231.706      64.739
  H       16.884     230.479      63.846
  H       15.095     230.401      63.884
  H        8.937     234.124      58.545
  H       10.301     233.105      58.936
  H        9.323     232.755      57.530

 3  4  5  6  7  8  9  10  11  12  13  23  27  28  29  30  32 0
 6-311+G(2d,p)
 ****
 34  35 0
 6-311+G(2d,p)
 ****
 1  2  14  15  16  17  18  19  20  21  22  24  25  26 0
 3-21G
 ****
 31  33  36  37  38  39  40  41  42  43  44  45  46 0
 3-21G
 ****


