%nproc=1
%NoSave
%Mem=1900MB
#P OB98/GEN NMR

erre ene a

0 1
  C      426.992    -194.393    -136.315
  O      426.567    -193.139    -135.823
  H      427.102    -195.082    -135.472
  H      427.963    -194.285    -136.805
  H      426.267    -194.815    -137.012
  P      426.046    -192.035    -136.864
  C      423.960    -191.630    -135.391
  O      425.089    -191.046    -136.032
  C      423.493    -190.762    -134.217
  O      424.432    -190.925    -133.112
  C      423.416    -189.260    -134.539
  O      422.370    -188.712    -133.746
  C      424.765    -188.777    -134.052
  O      424.777    -187.371    -133.880
  C      424.933    -189.612    -132.777
  N      426.319    -189.653    -132.313
  C      426.803    -188.510    -131.696
  O      426.126    -187.479    -131.563
  N      428.102    -188.555    -131.268
  C      428.965    -189.595    -131.454
  O      430.129    -189.565    -131.087
  C      428.416    -190.769    -132.157
  C      427.132    -190.747    -132.547
  O      425.449    -192.564    -138.125
  O      427.330    -191.121    -137.146
  H      425.537    -187.107    -133.317
  H      427.287    -190.755    -138.046
  H      428.459    -187.733    -130.810
  H      429.077    -191.607    -132.330
  H      426.701    -191.600    -133.068
  H      424.316    -189.211    -131.972
  H      425.553    -189.016    -134.778
  H      423.244    -189.059    -135.599
  H      422.530    -191.141    -133.871
  H      424.260    -192.620    -135.029
  H      423.148    -191.743    -136.115
  P      421.726    -187.266    -134.050
  C      419.319    -188.011    -134.585
  O      420.163    -187.300    -133.685
  O      422.021    -186.746    -135.427
  O      422.348    -186.297    -132.934
  H      422.390    -185.383    -133.283
  H      418.308    -187.963    -134.239
  H      419.631    -189.033    -134.635
  H      419.384    -187.571    -135.558

 6  7  8  9  10  11  12  13  14  15  16  26  31  32  33  34  35 0
 6-311+G(2d,p)
 ****
 36  37 0
 6-311+G(2d,p)
 ****
 1  2  3  4  5  17  18  19  20  21  22  23  24  25 0
 3-21G
 ****
 27  28  29  30  38  39  40  41  42  43  44  45 0
 3-21G
 ****


