%nproc=1
%NoSave
%Mem=1900MB
#P OB98/GEN NMR

erre ene a

0 1
  C     -398.058    -400.141    -191.107
  O     -397.926    -400.289    -192.506
  H     -398.588    -401.012    -190.709
  H     -398.634    -399.243    -190.871
  H     -397.069    -400.086    -190.642
  P     -397.264    -399.066    -193.305
  C     -396.475    -400.385    -195.402
  O     -397.370    -399.419    -194.867
  C     -397.126    -401.075    -196.600
  O     -398.230    -401.896    -196.151
  C     -397.723    -400.115    -197.619
  O     -396.745    -399.548    -198.478
  C     -398.676    -401.039    -198.358
  O     -398.007    -401.775    -199.393
  C     -399.170    -401.975    -197.242
  N     -400.530    -401.646    -196.820
  C     -401.550    -402.140    -197.632
  O     -401.347    -402.817    -198.640
  N     -402.824    -401.796    -197.260
  C     -403.165    -400.986    -196.219
  O     -404.324    -400.672    -195.980
  C     -402.045    -400.481    -195.409
  C     -400.797    -400.821    -195.744
  O     -395.705    -399.220    -192.986
  O     -397.783    -397.718    -192.933
  H     -395.428    -398.531    -192.355
  H     -397.272    -402.245    -198.955
  H     -403.576    -402.146    -197.833
  H     -402.279    -399.830    -194.576
  H     -399.953    -400.454    -195.170
  H     -399.166    -403.016    -197.586
  H     -399.477    -400.473    -198.829
  H     -398.303    -399.338    -197.111
  H     -396.382    -401.728    -197.071
  H     -396.248    -401.138    -194.641
  H     -395.546    -399.887    -195.694
  P     -397.117    -398.180    -199.228
  C     -394.640    -397.511    -199.822
  O     -395.929    -397.921    -200.272
  O     -396.874    -397.124    -198.058
  O     -398.496    -398.187    -199.803
  H     -396.217    -397.439    -197.413
  H     -393.990    -397.391    -200.663
  H     -394.239    -398.254    -199.164
  H     -394.724    -396.580    -199.301

 6  7  8  9  10  11  12  13  14  15  16  27  31  32  33  34  35 0
 6-311+G(2d,p)
 ****
 36  37 0
 6-311+G(2d,p)
 ****
 1  2  3  4  5  17  18  19  20  21  22  23  24  25 0
 3-21G
 ****
 26  28  29  30  38  39  40  41  42  43  44  45 0
 3-21G
 ****


