%nproc=1
%NoSave
%Mem=1900MB
#P OB98/GEN NMR

erre ene a

0 1
  C     -155.122     867.941    -217.029
  O     -154.495     866.786    -217.564
  P     -154.968     866.157    -218.961
  C     -152.622     865.907    -219.988
  O     -153.852     866.626    -220.012
  C     -152.568     864.917    -221.151
  O     -152.703     865.652    -222.384
  C     -151.264     864.133    -221.298
  O     -151.183     862.965    -220.489
  C     -151.348     863.724    -222.765
  O     -152.234     862.598    -222.909
  C     -151.954     864.968    -223.415
  N     -149.340     866.269    -227.619
  C     -150.315     865.352    -227.406
  N     -150.945     865.052    -226.255
  C     -150.515     865.843    -225.259
  C     -149.538     866.826    -225.327
  C     -148.940     867.027    -226.583
  N     -147.964     867.977    -226.800
  N     -149.357     867.418    -224.096
  C     -150.213     866.811    -223.301
  N     -150.944     865.864    -223.960
  O     -156.373     866.458    -219.333
  O     -154.686     864.591    -218.802
  H     -152.277     862.385    -223.861
  H     -155.172     864.094    -219.484
  H     -150.621     864.772    -228.276
  H     -150.337     867.026    -222.249
  H     -152.652     864.723    -224.219
  H     -150.376     863.418    -223.172
  H     -150.388     864.783    -221.152
  H     -153.422     864.239    -221.071
  H     -152.572     865.351    -219.045
  H     -147.688     868.143    -227.754
  H     -147.784     868.651    -226.073
  H     -151.786     866.604    -220.024
  P     -149.959     862.882    -219.448
  C     -151.249     862.360    -217.224
  O     -150.580     863.307    -218.025
  O     -148.731     863.623    -219.861
  O     -149.737     861.303    -219.295
  H     -150.456     860.822    -218.860
  H     -151.439     862.802    -216.245
  H     -150.640     861.459    -217.090
  H     -152.204     862.087    -217.685
  H     -154.662     868.197    -216.097
  H     -156.161     867.742    -216.871
  H     -155.015     868.755    -217.715

 3  4  5  6  7  8  9  10  11  12  22  25  29  30  31  32 0
 6-311+G(2d,p)
 ****
 33  36  37 0
 6-311+G(2d,p)
 ****
 1  2  13  14  15  16  17  18  19  20  21  23  24  26 0
 3-21G
 ****
 27  28  34  35  38  39  40  41  42  43  44  45  46  47  48 0
 3-21G
 ****


