%nproc=1
%NoSave
%Mem=1900MB
#P OB98/GEN NMR

erre ene a

0 1
  C      -64.292      11.715    -344.227
  O      -64.083      11.290    -345.559
  H      -64.399      10.832    -343.590
  H      -65.209      12.307    -344.163
  H      -63.441      12.306    -343.876
  P      -63.731      12.425    -346.634
  C      -64.163      10.586    -348.458
  O      -64.320      11.938    -348.048
  C      -65.510      10.017    -348.902
  O      -66.461      10.023    -347.819
  C      -66.192      10.830    -349.990
  O      -65.557      10.712    -351.242
  C      -67.589      10.228    -349.946
  O      -67.634       8.973    -350.637
  C      -67.783      10.020    -348.422
  N      -68.650      11.028    -347.827
  C      -69.798      11.354    -348.560
  O      -70.030      10.796    -349.632
  N      -70.634      12.328    -348.072
  C      -70.366      12.904    -346.944
  N      -71.230      13.868    -346.522
  C      -69.183      12.573    -346.128
  C      -68.374      11.639    -346.627
  O      -62.154      12.245    -346.827
  O      -64.156      13.807    -346.262
  H      -67.415       9.165    -351.570
  H      -61.890      11.338    -347.054
  H      -69.004      13.074    -345.187
  H      -67.482      11.335    -346.091
  H      -68.222       9.034    -348.221
  H      -68.331      10.876    -350.415
  H      -66.272      11.881    -349.683
  H      -65.352       8.978    -349.217
  H      -72.020      14.083    -347.118
  H      -63.735       9.981    -347.654
  H      -71.105      14.405    -345.677
  H      -63.456      10.576    -349.293
  P      -65.756      11.840    -352.367
  C      -64.851      10.213    -354.145
  O      -65.929      11.058    -353.758
  O      -64.719      12.910    -352.381
  O      -67.240      12.375    -352.092
  H      -67.937      11.698    -352.163
  H      -65.080       9.749    -355.082
  H      -64.704       9.459    -353.400
  H      -63.959      10.796    -354.244

 6  7  8  9  10  11  12  13  14  15  16  26  30  31  32  33  35 0
 6-311+G(2d,p)
 ****
 37  38 0
 6-311+G(2d,p)
 ****
 1  2  3  4  5  17  18  19  20  21  22  23  24  25 0
 3-21G
 ****
 27  28  29  34  36  39  40  41  42  43  44  45  46 0
 3-21G
 ****


