%nproc=1
%NoSave
%Mem=1900MB
#P OB98/GEN NMR

erre ene a

0 1
  C     -359.931    -284.603     114.152
  O     -359.089    -283.562     114.664
  P     -359.389    -282.800     116.044
  C     -357.667    -281.713     117.628
  O     -358.232    -281.730     116.319
  C     -356.538    -280.686     117.747
  O     -355.359    -281.149     117.061
  C     -356.849    -279.321     117.144
  O     -357.714    -278.577     117.981
  C     -355.447    -278.741     116.990
  O     -354.984    -278.180     118.231
  C     -354.624    -279.990     116.618
  N     -354.328    -280.061     115.191
  C     -353.657    -278.970     114.636
  O     -353.384    -277.985     115.326
  N     -353.325    -279.009     113.305
  C     -353.700    -280.014     112.573
  N     -353.336    -280.004     111.263
  C     -354.492    -281.142     113.099
  C     -354.766    -281.101     114.404
  O     -359.661    -283.715     117.195
  O     -360.674    -281.889     115.740
  H     -354.286    -277.535     117.999
  H     -361.196    -281.792     116.562
  H     -354.810    -281.943     112.453
  H     -355.338    -281.893     114.871
  H     -353.675    -280.004     117.168
  H     -355.400    -277.950     116.239
  H     -357.299    -279.449     116.151
  H     -356.289    -280.585     118.811
  H     -352.789    -279.217     110.935
  H     -357.270    -282.715     117.842
  H     -353.578    -280.735     110.611
  H     -358.460    -281.492     118.351
  P     -359.037    -277.912     117.374
  C     -361.551    -278.051     117.872
  O     -360.241    -278.212     118.382
  O     -359.315    -278.223     115.939
  O     -358.799    -276.336     117.574
  H     -359.235    -275.853     116.852
  H     -362.241    -278.646     118.476
  H     -361.610    -278.379     116.832
  H     -361.838    -276.998     117.936
  H     -359.534    -284.959     113.225
  H     -360.917    -284.219     113.993
  H     -359.971    -285.408     114.856

 3  4  5  6  7  8  9  10  11  12  13  23  27  28  29  30  32 0
 6-311+G(2d,p)
 ****
 34  35 0
 6-311+G(2d,p)
 ****
 1  2  14  15  16  17  18  19  20  21  22  24  25  26 0
 3-21G
 ****
 31  33  36  37  38  39  40  41  42  43  44  45  46 0
 3-21G
 ****


