%nproc=1
%NoSave
%Mem=1900MB
#P OB98/GEN NMR

erre ene a

0 1
  C     -712.070     -18.833    -376.996
  O     -711.330     -20.029    -377.130
  H     -713.123     -19.089    -376.835
  H     -711.991     -18.226    -377.901
  H     -711.718     -18.261    -376.131
  P     -709.772     -19.924    -377.489
  C     -708.450     -21.199    -375.670
  O     -708.977     -19.952    -376.097
  C     -709.240     -21.742    -374.469
  O     -710.625     -21.929    -374.862
  C     -708.721     -23.097    -373.952
  O     -708.995     -23.148    -372.544
  C     -709.613     -24.064    -374.705
  O     -709.558     -25.355    -374.155
  C     -710.952     -23.321    -374.634
  N     -711.921     -23.820    -375.591
  C     -712.641     -24.956    -375.209
  O     -712.432     -25.484    -374.122
  N     -713.555     -25.482    -376.088
  C     -713.694     -24.960    -377.271
  N     -714.610     -25.536    -378.094
  C     -712.909     -23.792    -377.734
  C     -712.050     -23.277    -376.852
  O     -709.390     -18.811    -378.404
  O     -709.428     -21.352    -378.132
  H     -709.906     -25.365    -373.233
  H     -709.338     -21.265    -379.099
  H     -713.042     -23.409    -378.731
  H     -711.431     -22.425    -377.097
  H     -711.386     -23.397    -373.626
  H     -709.288     -24.154    -375.745
  H     -707.655     -23.247    -374.132
  H     -709.232     -20.985    -373.673
  H     -715.112     -26.337    -377.740
  H     -707.404     -21.034    -375.386
  H     -714.780     -25.227    -379.040
  H     -708.484     -21.923    -376.487
  P     -708.328     -22.141    -371.487
  C     -710.434     -21.307    -370.257
  O     -709.365     -20.974    -371.143
  O     -706.976     -21.653    -371.889
  O     -708.235     -22.978    -370.123
  H     -707.461     -22.666    -369.616
  H     -711.054     -20.448    -370.107
  H     -710.033     -21.625    -369.318
  H     -711.017     -22.097    -370.682

 6  7  8  9  10  11  12  13  14  15  16  26  30  31  32  33  35 0
 6-311+G(2d,p)
 ****
 37  38 0
 6-311+G(2d,p)
 ****
 1  2  3  4  5  17  18  19  20  21  22  23  24  25 0
 3-21G
 ****
 27  28  29  34  36  39  40  41  42  43  44  45  46 0
 3-21G
 ****


