%nproc=1
%NoSave
%Mem=1900MB
#P OB98/GEN NMR

erre ene a

0 1
  C      110.427      -0.961      -6.183
  O      109.822       0.197      -5.641
  H      110.462      -1.732      -5.411
  H      111.448      -0.734      -6.504
  H      109.844      -1.333      -7.029
  P      109.663       1.448      -6.632
  C      111.845       2.417      -5.586
  O      111.124       2.096      -6.765
  C      112.918       3.470      -5.886
  O      112.292       4.590      -6.580
  C      113.591       4.050      -4.632
  O      114.925       4.447      -4.988
  C      112.744       5.284      -4.368
  O      113.378       6.146      -3.451
  C      112.566       5.775      -5.801
  N      111.449      10.690      -6.662
  C      112.626      10.028      -6.632
  N      112.844       8.716      -6.409
  C      111.681       8.066      -6.221
  C      110.406       8.605      -6.231
  C      110.309       9.989      -6.460
  N      109.114      10.668      -6.482
  N      109.460       7.624      -5.995
  C      110.155       6.513      -5.847
  N      111.500       6.735      -5.968
  O      108.852       2.511      -5.755
  O      108.983       1.158      -7.928
  H      114.158       6.578      -3.862
  H      107.898       2.445      -5.949
  H      113.512      10.633      -6.809
  H      109.741       5.533      -5.644
  H      113.484       6.228      -6.195
  H      111.781       5.009      -3.927
  H      113.631       3.344      -3.796
  H      113.656       3.044      -6.575
  H      112.317       1.503      -5.208
  H      111.155       2.805      -4.830
  H      109.132      11.663      -6.637
  H      108.258      10.161      -6.317
  P      116.131       3.400      -4.799
  C      117.490       4.738      -3.006
  O      116.737       3.575      -3.325
  O      117.281       4.051      -5.710
  O      115.847       1.999      -5.229
  H      117.873       3.349      -6.037
  H      117.813       4.685      -1.987
  H      116.880       5.606      -3.142
  H      118.344       4.797      -3.648

 6  7  8  9  10  11  12  13  14  15  25  28  32  33  34  35 0
 6-311+G(2d,p)
 ****
 36  37  40 0
 6-311+G(2d,p)
 ****
 1  2  3  4  5  16  17  18  19  20  21  22  23  24 0
 3-21G
 ****
 26  27  29  30  31  38  39 41  42  43  44  45  46  47  48 0
 3-21G
 ****


