%nproc=1
%NoSave
%Mem=1900MB
#P OB98/GEN NMR

erre ene a

0 1
  C      445.553    -117.110     353.029
  O      444.877    -115.885     353.232
  H      446.615    -116.965     353.241
  H      445.442    -117.427     351.991
  H      445.163    -117.883     353.698
  P      443.274    -115.917     353.208
  C      443.187    -114.781     355.546
  O      442.794    -115.882     354.741
  C      443.697    -115.275     356.898
  O      442.645    -116.060     357.530
  C      444.942    -116.168     356.806
  O      445.772    -115.900     357.941
  C      444.371    -117.568     356.931
  O      445.306    -118.535     357.390
  C      443.220    -117.325     357.913
  N      442.218    -118.389     357.882
  C      441.927    -119.027     359.083
  O      442.385    -118.706     360.178
  N      441.059    -120.085     358.994
  C      440.494    -120.568     357.850
  O      439.740    -121.534     357.832
  C      440.847    -119.858     356.613
  C      441.683    -118.820     356.685
  O      442.952    -117.416     352.753
  O      442.626    -114.899     352.332
  H      442.895    -117.472     351.781
  H      444.802    -119.342     357.622
  H      440.838    -120.559     359.855
  H      440.425    -120.220     355.686
  H      441.982    -118.287     355.789
  H      443.608    -117.214     358.932
  H      443.987    -117.903     355.959
  H      445.520    -116.040     355.886
  H      443.883    -114.409     357.543
  H      442.327    -114.126     355.707
  H      443.969    -114.215     355.025
  P      446.745    -114.624     357.854
  C      445.035    -113.607     359.558
  O      445.900    -113.399     358.451
  O      446.770    -114.359     356.277
  O      448.079    -114.862     358.482
  H      445.921    -114.556     355.845
  H      444.558    -112.685     359.816
  H      445.603    -113.961     360.393
  H      444.292    -114.332     359.299

 6  7  8  9  10  11  12  13  14  15  16  27  31  32  33  34  35 0
 6-311+G(2d,p)
 ****
 36  37 0
 6-311+G(2d,p)
 ****
 1  2  3  4  5  17  18  19  20  21  22  23  24  25 0
 3-21G
 ****
 26  28  29  30  38  39  40  41  42  43  44  45 0
 3-21G
 ****


