%nproc=1
%NoSave
%Mem=1900MB
#P OB98/GEN NMR

erre ene a

0 1
  C     -417.398    -144.105     441.937
  O     -416.731    -145.251     442.477
  P     -415.156    -145.458     442.250
  C     -415.290    -147.552     440.785
  O     -414.862    -147.027     442.037
  C     -416.028    -148.895     440.907
  O     -415.090    -149.989     441.051
  C     -417.010    -148.984     442.084
  O     -418.078    -149.823     441.639
  C     -416.176    -149.686     443.144
  O     -416.971    -150.264     444.175
  C     -415.380    -150.675     442.283
  N     -414.171    -151.143     442.950
  C     -414.253    -152.338     443.665
  O     -415.332    -152.920     443.766
  N     -413.127    -152.813     444.288
  C     -412.043    -152.110     444.285
  N     -410.970    -152.624     444.940
  C     -411.931    -150.798     443.609
  C     -413.017    -150.387     442.962
  O     -414.284    -144.796     443.268
  O     -414.891    -144.837     440.794
  H     -416.370    -150.560     444.890
  H     -413.982    -144.482     440.756
  H     -411.011    -150.234     443.650
  H     -413.035    -149.445     442.433
  H     -415.996    -151.554     442.035
  H     -415.495    -148.961     443.618
  H     -417.381    -148.012     442.416
  H     -416.566    -149.061     439.968
  H     -411.095    -153.511     445.415
  H     -414.414    -147.685     440.142
  H     -410.112    -152.112     445.093
  H     -415.942    -146.819     440.294
  P     -419.536    -149.240     441.316
  C     -420.377    -150.758     443.205
  O     -420.592    -150.305     441.880
  O     -419.755    -148.839     439.897
  O     -419.707    -147.991     442.313
  H     -420.429    -147.429     441.989
  H     -421.261    -151.298     443.545
  H     -420.195    -149.910     443.877
  H     -419.513    -151.433     443.228
  H     -418.436    -144.144     442.192
  H     -417.292    -144.099     440.872
  H     -416.964    -143.215     442.343

 3  4  5  6  7  8  9  10  11  12  13  23  27  28  29  30  32 0
 6-311+G(2d,p)
 ****
 34  35 0
 6-311+G(2d,p)
 ****
 1  2  14  15  16  17  18  19  20  21  22  24  25  26 0
 3-21G
 ****
 31  33  36  37  38  39  40  41  42  43  44  45  46 0
 3-21G
 ****


