%nproc=1
%NoSave
%Mem=1900MB
#P OB98/GEN NMR

erre ene a

0 1
  C      614.577     -55.002    1155.823
  O      615.366     -55.576    1156.844
  H      615.235     -54.553    1155.074
  H      613.937     -54.213    1156.239
  H      613.962     -55.770    1155.348
  P      614.593     -56.191    1158.106
  C      613.832     -58.406    1156.983
  O      613.446     -57.148    1157.525
  C      613.302     -59.531    1157.872
  O      611.850     -59.577    1157.795
  C      613.777     -60.917    1157.483
  O      615.097     -61.189    1157.920
  C      612.747     -61.792    1158.177
  O      613.092     -62.028    1159.547
  C      611.461     -60.948    1158.069
  N      610.551     -61.467    1157.047
  C      609.470     -62.188    1157.519
  O      609.270     -62.395    1158.717
  N      608.644     -62.724    1156.559
  C      608.824     -62.630    1155.214
  O      608.069     -63.182    1154.409
  C      609.994     -61.862    1154.769
  C      610.803     -61.331    1155.683
  O      613.782     -54.939    1158.688
  O      615.469     -56.813    1159.138
  H      614.205     -54.628    1159.511
  H      613.092     -61.153    1159.975
  H      607.850     -63.250    1156.891
  H      610.170     -61.779    1153.706
  H      611.678     -60.765    1155.382
  H      610.924     -60.927    1159.022
  H      612.662     -62.756    1157.687
  H      613.684     -61.057    1156.393
  H      613.582     -59.309    1158.917
  H      614.928     -58.480    1156.940
  H      613.439     -58.495    1155.966
  P      616.107     -61.881    1156.882
  C      616.770     -59.599    1155.733
  O      616.179     -60.888    1155.620
  O      615.221     -63.121    1156.369
  O      617.424     -62.253    1157.492
  H      614.259     -62.925    1156.442
  H      616.718     -59.099    1154.788
  H      617.794     -59.701    1156.027
  H      616.242     -59.028    1156.468

 6  7  8  9  10  11  12  13  14  15  16  27  31  32  33  34  35 0
 6-311+G(2d,p)
 ****
 36  37 0
 6-311+G(2d,p)
 ****
 1  2  3  4  5  17  18  19  20  21  22  23  24  25 0
 3-21G
 ****
 26  28  29  30  38  39  40  41  42  43  44  45 0
 3-21G
 ****


