%nproc=1
%NoSave
%Mem=1900MB
#P OB98/GEN NMR

erre ene a

0 1
  C      451.631      77.523     545.487
  O      450.429      77.720     546.219
  P      450.553      77.757     547.829
  C      450.929      75.178     547.932
  O      450.158      76.295     548.339
  C      450.584      73.963     548.801
  O      450.962      74.210     550.175
  C      449.095      73.618     548.821
  O      448.745      72.863     547.679
  C      448.988      72.841     550.129
  O      449.415      71.473     549.956
  C      449.958      73.610     551.041
  N      447.998      74.650     555.586
  C      448.394      73.442     555.043
  N      448.305      72.362     555.855
  N      448.856      73.304     553.828
  C      448.879      74.460     553.128
  C      448.489      75.725     553.552
  C      448.043      75.867     554.912
  O      447.768      76.928     555.466
  N      448.642      76.654     552.551
  C      449.144      75.962     551.544
  N      449.325      74.635     551.853
  O      449.317      78.674     548.259
  O      451.862      78.269     548.346
  H      449.562      71.071     550.833
  H      449.608      79.590     548.438
  H      447.670      74.692     556.531
  H      449.413      76.380     550.589
  H      450.491      72.944     551.732
  H      447.955      72.801     550.504
  H      447.938      72.390     556.791
  H      448.487      74.530     548.885
  H      448.593      71.467     555.477
  H      451.170      73.113     548.440
  H      451.992      75.410     548.046
  H      450.724      74.964     546.874
  P      447.580      73.435     546.735
  C      445.752      72.856     548.484
  O      446.225      72.705     547.159
  O      447.924      72.813     545.303
  O      447.508      74.923     546.678
  H      447.698      73.456     544.600
  H      444.657      72.779     548.480
  H      446.035      73.827     548.913
  H      446.157      72.050     549.112
  H      451.414      77.518     544.439
  H      452.068      76.587     545.765
  H      452.316      78.315     545.706

 3  4  5  6  7  8  9  10  11  12  23  26  30  31 0
 6-311+G(2d,p)
 ****
 33  35  36  37  38 0
 6-311+G(2d,p)
 ****
 1  2  13  14  15  16  17  18  19  20  21  22  24  25 0
 3-21G
 ****
 27  28  29  32  34  39  40  41  42  43  44  45  46  47  48  49 0
 3-21G
 ****


