%nproc=1
%NoSave
%Mem=1900MB
#P OB98/GEN NMR

erre ene a

0 1
  C      329.037    -181.942     168.920
  O      327.962    -181.396     168.154
  P      328.073    -181.372     166.554
  C      329.588    -179.286     166.493
  O      329.449    -180.652     166.138
  C      331.014    -178.785     166.216
  O      331.341    -178.985     164.816
  C      331.204    -177.296     166.539
  O      332.335    -177.041     167.371
  C      331.224    -176.637     165.168
  O      331.894    -175.386     165.168
  C      331.810    -177.737     164.272
  N      331.428    -177.558     162.870
  C      332.134    -178.302     161.934
  O      333.089    -179.022     162.221
  N      331.746    -178.149     160.628
  C      330.798    -177.280     160.175
  O      330.517    -177.143     158.989
  C      330.126    -176.470     161.205
  C      330.467    -176.648     162.486
  O      326.864    -180.889     165.826
  O      328.373    -182.909     166.197
  H      332.760    -175.498     165.619
  H      327.884    -183.126     165.377
  H      332.237    -178.694     159.939
  H      329.387    -175.756     160.882
  H      330.004    -176.058     163.264
  H      332.905    -177.734     164.315
  H      330.189    -176.450     164.860
  H      330.360    -176.903     167.114
  H      331.698    -179.396     166.817
  H      329.372    -179.165     167.558
  H      328.841    -178.692     165.958
  P      332.272    -176.871     168.958
  C      331.367    -174.444     169.077
  O      331.116    -175.817     169.305
  O      333.576    -176.617     169.640
  O      331.658    -178.269     169.447
  H      332.112    -178.551     170.262
  H      330.672    -173.859     169.685
  H      331.191    -174.212     168.021
  H      332.391    -174.174     169.353
  H      328.800    -181.880     169.962
  H      329.932    -181.389     168.724
  H      329.184    -182.966     168.648

 3  4  5  6  7  8  9  10  11  12  13  23  28  29  30  31  32 0
 6-311+G(2d,p)
 ****
 33  34 0
 6-311+G(2d,p)
 ****
 1  2  14  15  16  17  18  19  20  21  22  24  25  26  27 0
 3-21G
 ****
 35  36  37  38  39  40  41  42  43  44  45 0
 3-21G
 ****


