%nproc=1
%NoSave
%Mem=1900MB
#P OB98/GEN NMR

erre ene a

0 1
  C     -526.666      43.980     263.901
  O     -526.073      42.820     264.440
  H     -525.895      44.565     263.389
  H     -527.089      44.593     264.704
  H     -527.446      43.720     263.181
  P     -527.051      41.731     265.103
  C     -525.510      41.666     267.198
  O     -526.172      40.925     266.179
  C     -523.995      41.480     267.093
  O     -523.519      42.161     265.905
  C     -523.228      42.032     268.296
  O     -522.139      41.148     268.587
  C     -522.682      43.360     267.790
  O     -521.510      43.775     268.498
  C     -522.469      43.059     266.302
  N     -522.469      44.286     265.506
  C     -521.241      44.694     264.981
  O     -520.223      44.040     265.207
  N     -521.179      45.865     264.270
  C     -522.237      46.605     264.161
  N     -522.106      47.771     263.466
  C     -523.544      46.249     264.756
  C     -523.584      45.087     265.402
  O     -527.264      40.665     263.930
  O     -528.338      42.266     265.631
  H     -521.180      44.600     268.083
  H     -528.153      40.259     263.982
  H     -524.387      46.914     264.662
  H     -524.496      44.740     265.877
  H     -521.512      42.542     266.149
  H     -523.442      44.139     267.917
  H     -523.847      42.150     269.187
  H     -523.789      40.409     266.953
  H     -521.193      47.987     263.090
  H     -525.849      41.310     268.173
  H     -522.852      48.448     263.361
  H     -525.772      42.724     267.099
  P     -522.120      40.493     270.049
  C     -519.643      41.178     270.460
  O     -520.599      40.123     270.410
  O     -522.814      39.067     269.828
  O     -522.833      41.307     271.084
  H     -523.700      39.069     270.230
  H     -518.683      40.778     270.711
  H     -519.937      41.891     271.202
  H     -519.591      41.658     269.505

 6  7  8  9  10  11  12  13  14  15  16  26  30  31  32  33  35 0
 6-311+G(2d,p)
 ****
 37  38 0
 6-311+G(2d,p)
 ****
 1  2  3  4  5  17  18  19  20  21  22  23  24  25 0
 3-21G
 ****
 27  28  29  34  36  39  40  41  42  43  44  45  46 0
 3-21G
 ****


