%nproc=1
%NoSave
%Mem=1900MB
#P OB98/GEN NMR

erre ene a

0 1
  C      410.257     637.996     455.053
  O      410.261     638.400     453.689
  P      410.470     639.906     453.189
  C      412.184     641.208     454.681
  O      411.960     640.359     453.571
  C      413.654     641.657     454.811
  O      414.512     640.485     454.913
  C      414.092     642.410     453.550
  O      413.817     643.797     453.425
  C      415.571     642.064     453.400
  O      416.433     643.035     453.997
  C      415.697     640.722     454.121
  N      418.852     638.445     450.793
  C      419.003     639.643     451.462
  N      420.121     640.363     451.177
  N      418.139     640.113     452.325
  C      417.037     639.339     452.452
  C      416.766     638.144     451.832
  C      417.757     637.612     450.923
  O      417.683     636.541     450.316
  N      415.538     637.660     452.196
  C      415.044     638.571     453.008
  N      415.929     639.611     453.204
  O      409.374     640.850     453.524
  O      410.517     639.756     451.583
  H      416.621     643.713     453.327
  H      410.130     640.578     451.217
  H      419.571     638.123     450.163
  H      414.076     638.535     453.492
  H      416.533     640.732     454.817
  H      415.846     642.028     452.332
  H      420.758     640.114     450.442
  H      413.595     641.936     452.700
  H      420.121     641.332     451.490
  H      413.805     642.220     455.727
  H      411.876     640.659     455.574
  H      411.545     642.089     454.612
  P      413.040     644.484     452.207
  C      410.811     643.825     451.131
  O      411.488     644.124     452.336
  O      413.496     643.644     450.923
  O      413.336     645.940     452.005
  H      413.293     644.121     450.102
  H      409.724     643.903     451.305
  H      411.047     642.809     450.801
  H      411.089     644.531     450.339
  H      410.098     636.940     455.112
  H      409.472     638.504     455.573
  H      411.198     638.240     455.500

 3  4  5  6  7  8  9  10  11  12  23  26  30  31 0
 6-311+G(2d,p)
 ****
 33  35  36  37  38 0
 6-311+G(2d,p)
 ****
 1  2  13  14  15  16  17  18  19  20  21  22  24  25 0
 3-21G
 ****
 27  28  29  32  34  39  40  41  42  43  44  45  46  47  48  49 0
 3-21G
 ****


