%nproc=1
%NoSave
%Mem=1900MB
#P OB98/GEN NMR

erre ene a

0 1
  C       18.516     109.147      21.796
  O       19.616     109.033      22.684
  P       19.391     108.731      24.245
  C       18.032     110.000      26.021
  O       18.847     110.108      24.859
  C       18.336     111.144      26.983
  O       19.742     111.092      27.325
  C       18.108     112.554      26.438
  O       16.769     113.015      26.536
  C       18.988     113.367      27.379
  O       18.311     113.560      28.635
  C       20.198     112.447      27.566
  N       25.110     113.841      27.222
  C       24.317     113.574      28.284
  N       23.012     113.227      28.294
  C       22.543     113.123      27.041
  C       23.229     113.358      25.861
  C       24.578     113.735      25.982
  N       25.389     113.984      24.897
  N       22.404     113.167      24.769
  C       21.247     112.811      25.286
  N       21.282     112.761      26.652
  O       20.567     108.132      24.934
  O       18.102     107.787      24.282
  H       18.131     112.672      28.999
  H       18.042     107.338      25.147
  H       24.793     113.654      29.259
  H       20.359     112.583      24.712
  H       20.598     112.479      28.585
  H       19.224     114.360      26.989
  H       18.489     112.652      25.415
  H       17.759     110.985      27.903
  H       18.260     109.047      26.512
  H       26.372     114.120      25.074
  H       25.041     113.748      23.978
  H       16.978     109.995      25.732
  P       16.221     113.936      25.336
  C       17.188     116.038      24.112
  O       17.289     115.123      25.181
  O       14.802     114.363      25.479
  O       16.490     113.028      24.044
  H       17.425     112.882      23.827
  H       17.900     116.851      24.278
  H       16.183     116.463      24.055
  H       17.434     115.543      23.169
  H       18.874     109.348      20.808
  H       17.881     109.947      22.115
  H       17.962     108.231      21.795

 3  4  5  6  7  8  9  10  11  12  22  25  29  30  31  32 0
 6-311+G(2d,p)
 ****
 33  36  37 0
 6-311+G(2d,p)
 ****
 1  2  13  14  15  16  17  18  19  20  21  23  24  26 0
 3-21G
 ****
 27  28  34  35  38  39  40  41  42  43  44  45  46  47  48 0
 3-21G
 ****


