%nproc=1
%NoSave
%Mem=1900MB
#P OB98/GEN NMR

erre ene a

0 1
  C      112.951      29.493     129.887
  O      112.988      28.524     130.914
  H      113.805      30.168     129.974
  H      113.001      28.985     128.920
  H      112.019      30.063     129.937
  P      112.962      29.069     132.423
  C      112.290      27.823     134.595
  O      113.036      27.784     133.386
  C      112.271      26.440     135.241
  O      111.246      25.647     134.590
  C      113.600      25.672     135.147
  O      114.067      25.328     136.456
  C      113.246      24.388     134.412
  O      113.898      23.237     134.942
  C      111.732      24.298     134.568
  N      111.021      19.624     132.667
  C      111.302      20.047     133.919
  N      111.374      21.309     134.383
  C      111.091      22.191     133.407
  C      110.764      21.912     132.091
  C      110.753      20.556     131.721
  N      110.521      20.127     130.433
  N      110.550      23.077     131.380
  C      110.785      24.046     132.244
  N      111.134      23.557     133.475
  O      111.455      29.585     132.601
  O      113.953      30.143     132.725
  H      113.755      22.513     134.303
  H      111.460      30.476     132.999
  H      111.503      19.264     134.646
  H      110.763      25.105     132.023
  H      111.440      23.816     135.508
  H      113.531      24.492     133.358
  H      114.376      26.230     134.612
  H      111.972      26.555     136.290
  H      111.259      28.129     134.379
  H      110.648      19.148     130.235
  H      110.430      20.819     129.703
  H      112.738      28.561     135.268
  P      114.930      26.446     137.229
  C      115.677      26.755     139.703
  O      115.297      25.852     138.674
  O      113.843      27.574     137.558
  O      116.073      26.982     136.435
  H      114.278      28.444     137.633
  H      115.888      26.208     140.598
  H      114.879      27.443     139.886
  H      116.550      27.294     139.400

 6  7  8  9  10  11  12  13  14  15  25  28  32  33  34  35 0
 6-311+G(2d,p)
 ****
 36  39  40 0
 6-311+G(2d,p)
 ****
 1  2  3  4  5  16  17  18  19  20  21  22  23  24 0
 3-21G
 ****
 26  27  29  30  31  37  38  41  42  43  44  45  46  47  48 0
 3-21G
 ****


