%nproc=1
%NoSave
%Mem=1900MB
#P OB98/GEN NMR

erre ene a

0 1
  C     -551.159    -442.973    -207.864
  O     -551.064    -442.180    -206.701
  H     -550.982    -444.019    -207.592
  H     -550.407    -442.667    -208.600
  H     -552.158    -442.886    -208.297
  P     -551.238    -440.597    -206.891
  C     -552.693    -439.495    -205.073
  O     -551.415    -440.031    -205.397
  C     -553.676    -440.624    -204.759
  O     -553.089    -441.486    -203.748
  C     -555.026    -440.131    -204.221
  O     -556.064    -440.980    -204.716
  C     -554.888    -440.323    -202.724
  O     -556.156    -440.434    -202.072
  C     -554.026    -441.587    -202.665
  N     -552.598    -444.868    -199.043
  C     -553.124    -445.053    -200.274
  N     -553.456    -444.115    -201.190
  C     -553.137    -442.886    -200.741
  C     -552.592    -442.541    -199.518
  C     -552.332    -443.606    -198.630
  N     -551.826    -443.430    -197.365
  N     -552.457    -441.176    -199.416
  C     -552.896    -440.696    -200.569
  N     -553.333    -441.696    -201.391
  O     -552.293    -440.179    -207.858
  O     -549.749    -440.140    -207.261
  H     -556.552    -439.539    -202.014
  H     -549.095    -440.544    -206.658
  H     -553.312    -446.082    -200.555
  H     -552.933    -439.646    -200.845
  H     -554.619    -442.504    -202.794
  H     -554.358    -439.473    -202.279
  H     -555.236    -439.098    -204.483
  H     -553.808    -441.234    -205.667
  H     -553.073    -438.889    -205.900
  H     -551.665    -444.249    -196.803
  H     -551.614    -442.499    -197.045
  H     -552.571    -438.844    -204.199
  P     -556.607    -440.757    -206.202
  C     -557.123    -443.209    -206.820
  O     -557.666    -441.927    -206.546
  O     -555.570    -440.527    -207.247
  O     -557.561    -439.477    -206.044
  H     -557.424    -438.876    -206.813
  H     -557.917    -443.895    -207.032
  H     -556.573    -443.553    -205.969
  H     -556.470    -443.147    -207.665

 6  7  8  9  10  11  12  13  14  15  25  28  32  33  34  35 0
 6-311+G(2d,p)
 ****
 36  39  40 0
 6-311+G(2d,p)
 ****
 1  2  3  4  5  16  17  18  19  20  21  22  23  24 0
 3-21G
 ****
 26  27  29  30  31  37  38  41  42  43  44  45  46  47 0
 3-21G
 ****
 48 0
 3-21G
 ****


