%nproc=1
%NoSave
%Mem=1900MB
#P OB98/GEN NMR

erre ene a

0 1
  C      534.437    -842.200     -11.107
  O      533.401    -842.267     -10.145
  H      535.391    -842.080     -10.582
  H      534.288    -841.342     -11.766
  H      534.483    -843.121     -11.695
  P      531.919    -842.632     -10.637
  C      532.295    -845.076      -9.886
  O      531.466    -843.925      -9.798
  C      531.592    -846.303      -9.271
  O      531.506    -846.097      -7.822
  C      530.160    -846.527      -9.787
  O      529.914    -847.939      -9.716
  C      529.352    -845.782      -8.724
  O      527.972    -846.055      -8.800
  C      530.112    -846.230      -7.474
  N      529.811    -845.477      -6.258
  C      528.514    -845.535      -5.759
  O      527.591    -846.180      -6.279
  N      528.278    -844.806      -4.630
  C      529.195    -844.058      -3.944
  O      528.926    -843.450      -2.909
  C      530.541    -844.021      -4.519
  C      530.791    -844.731      -5.625
  O      531.730    -842.733     -12.107
  O      531.017    -841.472      -9.996
  H      530.792    -840.812     -10.690
  H      527.539    -845.699      -7.995
  H      527.342    -844.842      -4.246
  H      531.287    -843.434      -4.011
  H      531.782    -844.747      -6.066
  H      529.932    -847.290      -7.280
  H      529.451    -844.707      -8.882
  H      530.004    -846.173     -10.804
  H      532.215    -847.178      -9.430
  H      533.228    -844.875      -9.346
  H      532.528    -845.274     -10.936
  P      530.052    -848.919     -10.985
  C      531.395    -850.808      -9.827
  O      530.159    -850.429     -10.453
  O      531.136    -848.532     -11.936
  O      528.610    -848.868     -11.707
  H      528.729    -849.083     -12.654
  H      531.340    -851.831      -9.519
  H      531.567    -850.187      -8.973
  H      532.199    -850.688     -10.523

 6  7  8  9  10  11  12  13  14  15  16  27  31  32  33  34  35 0
 6-311+G(2d,p)
 ****
 36  37 0
 6-311+G(2d,p)
 ****
 1  2  3  4  5  17  18  19  20  21  22  23  24  25 0
 3-21G
 ****
 26  28  29  30  38  39  40  41  42  43  44  45 0
 3-21G
 ****


