%nproc=1
%NoSave
%Mem=1900MB
#P OB98/GEN NMR

erre ene a

0 1
  C       91.854    -895.052     -23.156
  O       91.911    -896.450     -23.481
  P       90.657    -897.097     -24.257
  C       91.492    -896.874     -26.714
  O       90.580    -896.434     -25.709
  C       90.752    -897.195     -28.014
  O       90.022    -896.040     -28.510
  C       91.667    -897.651     -29.136
  O       91.985    -899.035     -29.038
  C       90.772    -897.410     -30.347
  O       89.830    -898.494     -30.486
  C       90.041    -896.119     -29.965
  N       89.695    -892.469     -33.454
  C       88.850    -893.525     -33.187
  N       87.736    -893.615     -33.954
  N       89.063    -894.412     -32.246
  C       90.199    -894.178     -31.548
  C       91.124    -893.162     -31.724
  C       90.880    -892.206     -32.769
  O       91.597    -891.259     -33.076
  N       92.148    -893.269     -30.827
  C       91.840    -894.326     -30.091
  N       90.680    -894.922     -30.499
  O       89.395    -896.443     -23.505
  O       90.609    -898.587     -24.211
  H       89.340    -898.335     -31.313
  H       88.635    -897.042     -23.558
  H       89.484    -891.814     -34.196
  H       92.433    -894.695     -29.256
  H       88.993    -896.103     -30.302
  H       91.338    -897.361     -31.287
  H       87.478    -892.954     -34.659
  H       92.557    -897.019     -29.203
  H       87.079    -894.367     -33.754
  H       90.019    -897.994     -27.794
  H       92.036    -897.758     -26.366
  H       92.249    -896.096     -26.870
  P       93.446    -899.504     -29.495
  C       94.586    -899.513     -27.156
  O       94.456    -898.880     -28.423
  O       93.705    -898.634     -30.815
  O       93.587    -900.954     -29.757
  H       94.278    -899.124     -31.436
  H       95.431    -899.056     -26.620
  H       94.776    -900.583     -27.274
  H       93.668    -899.358     -26.570
  H       92.751    -894.768     -22.646
  H       91.010    -894.867     -22.524
  H       91.758    -894.480     -24.055

 3  4  5  6  7  8  9  10  11  12  23  26  30  31 0
 6-311+G(2d,p)
 ****
 33  35  36  37  38 0
 6-311+G(2d,p)
 ****
 1  2  13  14  15  16  17  18  19  20  21  22  24  25 0
 3-21G
 ****
 27  28  29  32  34  39  40  41  42  43  44  45  46  47  48  49 0
 3-21G
 ****


