%nproc=1
%NoSave
%Mem=1900MB
#P OB98/GEN NMR

erre ene a

0 1
  C      141.793    -236.188    -262.708
  O      141.197    -234.964    -262.277
  P      141.260    -233.747    -263.331
  C      143.070    -232.112    -264.210
  O      142.765    -233.185    -263.331
  C      144.188    -231.235    -263.634
  O      143.831    -230.738    -262.307
  C      145.535    -231.962    -263.492
  O      146.559    -230.998    -263.761
  C      145.532    -232.354    -262.023
  O      146.814    -232.719    -261.538
  C      144.917    -231.094    -261.424
  N      145.786    -229.924    -256.531
  C      146.447    -229.608    -257.670
  N      146.153    -229.966    -258.937
  C      145.041    -230.721    -258.968
  C      144.262    -231.131    -257.896
  C      144.674    -230.696    -256.622
  N      144.025    -231.029    -255.455
  N      143.210    -231.921    -258.324
  C      143.400    -232.045    -259.631
  N      144.442    -231.274    -260.070
  O      140.415    -232.593    -262.614
  O      140.721    -234.096    -264.680
  H      146.727    -233.125    -260.649
  H      139.512    -232.558    -262.978
  H      147.336    -228.994    -257.540
  H      142.824    -232.671    -260.290
  H      145.621    -230.255    -261.409
  H      144.868    -233.217    -261.884
  H      145.648    -232.811    -264.179
  H      144.307    -230.356    -264.287
  H      142.179    -231.494    -264.373
  H      144.396    -230.675    -254.594
  H      143.199    -231.609    -255.481
  H      143.348    -232.517    -265.188
  P      147.735    -231.383    -264.785
  C      149.970    -232.621    -264.535
  O      148.894    -232.000    -263.857
  O      148.330    -229.926    -265.103
  O      147.330    -232.154    -265.994
  H      148.505    -229.434    -264.284
  H      150.720    -232.921    -263.799
  H      150.427    -231.924    -265.243
  H      149.612    -233.513    -265.058
  H      141.695    -236.923    -261.937
  H      142.830    -236.026    -262.917
  H      141.300    -236.532    -263.593

 3  4  5  6  7  8  9  10  11  12  22  25  29  30  31  32 0
 6-311+G(2d,p)
 ****
 33  36  37 0
 6-311+G(2d,p)
 ****
 1  2  13  14  15  16  17  18  19  20  21  23  24  26 0
 3-21G
 ****
 27  28  34  35  38  39  40  41  42  43  44  45  46  47  48 0
 3-21G
 ****


