%nproc=1
%NoSave
%Mem=1900MB
#P OB98/GEN NMR

erre ene a

0 1
  C      -99.040     283.977     449.119
  O      -98.594     283.232     450.231
  H      -99.751     283.371     448.551
  H      -98.195     284.227     448.470
  H      -99.539     284.892     449.447
  P      -97.553     283.950     451.226
  C      -98.374     282.656     453.329
  O      -97.315     282.888     452.410
  C      -99.356     281.627     452.764
  O      -98.644     280.398     452.477
  C     -100.500     281.291     453.721
  O     -101.728     281.226     452.990
  C     -100.134     279.926     454.277
  O     -101.279     279.186     454.695
  C      -99.341     279.313     453.116
  N      -98.413     278.282     453.579
  C      -98.656     276.975     453.145
  O      -99.622     276.728     452.421
  N      -97.832     275.970     453.583
  C      -96.887     276.234     454.433
  N      -96.119     275.192     454.849
  C      -96.626     277.591     454.952
  C      -97.415     278.556     454.484
  O      -98.439     285.088     451.910
  O      -96.304     284.454     450.582
  H     -101.036     278.236     454.722
  H      -97.876     285.745     452.391
  H      -95.835     277.757     455.673
  H      -97.296     279.586     454.813
  H     -100.022     278.865     452.376
  H      -99.481     280.053     455.149
  H     -100.611     282.018     454.524
  H      -99.736     281.998     451.805
  H      -96.336     274.273     454.476
  H      -98.900     283.599     453.514
  H      -95.378     275.277     455.525
  H      -97.960     282.289     454.273
  P     -102.639     282.546     453.026
  C     -103.372     282.285     450.553
  O     -103.780     282.381     451.910
  O     -101.680     283.681     452.431
  O     -103.147     282.886     454.391
  H     -101.289     284.207     453.153
  H     -104.234     282.180     449.928
  H     -102.737     281.433     450.431
  H     -102.838     283.170     450.278

 6  7  8  9  10  11  12  13  14  15  16  26  30  31  32  33  35 0
 6-311+G(2d,p)
 ****
 37  38 0
 6-311+G(2d,p)
 ****
 1  2  3  4  5  17  18  19  20  21  22  23  24  25 0
 3-21G
 ****
 27  28  29  34  36  39  40  41  42  43  44  45  46 0
 3-21G
 ****


