%nproc=1
%NoSave
%Mem=1900MB
#P OB98/GEN NMR

erre ene a

0 1
  C        6.902     143.237     133.632
  O        5.505     143.191     133.868
  P        4.841     141.926     134.598
  C        4.270     140.719     132.400
  O        5.025     140.677     133.606
  C        3.880     139.309     131.960
  O        5.070     138.486     131.924
  C        2.884     138.635     132.897
  O        1.992     137.829     132.121
  C        3.736     137.711     133.752
  O        2.969     136.603     134.246
  C        4.854     137.340     132.769
  N        8.181     133.611     133.958
  C        7.040     133.600     133.232
  N        6.191     134.622     132.980
  C        6.656     135.763     133.517
  C        7.803     135.930     134.278
  C        8.588     134.784     134.498
  N        9.757     134.802     135.227
  N        7.933     137.246     134.684
  C        6.895     137.859     134.160
  N        6.097     137.008     133.438
  O        3.445     142.135     135.078
  O        5.838     141.587     135.800
  H        2.248     136.975     134.793
  H        5.337     141.309     136.591
  H        6.768     132.641     132.802
  H        6.666     138.908     134.283
  H        4.567     136.496     132.132
  H        4.127     138.264     134.613
  H        2.315     139.350     133.501
  H        3.483     139.359     130.939
  H        4.886     141.181     131.623
  H       10.314     133.960     135.229
  H       10.147     135.700     135.479
  H        3.380     141.339     132.549
  P        0.437     137.904     132.535
  C        0.507     135.484     133.492
  O        0.286     136.854     133.736
  O       -0.466     137.731     131.359
  O        0.367     139.349     133.226
  H        1.245     139.622     133.575
  H        0.319     134.928     134.417
  H        1.544     135.316     133.194
  H       -0.171     135.117     132.715
  H        7.150     144.153     133.139
  H        7.187     142.411     133.014
  H        7.423     143.181     134.565

 3  4  5  6  7  8  9  10  11  12  22  25  29  30  31  32 0
 6-311+G(2d,p)
 ****
 33  36  37 0
 6-311+G(2d,p)
 ****
 1  2  13  14  15  16  17  18  19  20  21  23  24  26 0
 3-21G
 ****
 27  28  34  35  38  39  40  41  42  43  44  45  46  47  48 0
 3-21G
 ****


