%nproc=1
%NoSave
%Mem=1900MB
#P OB98/GEN NMR

erre ene a

0 1
  C     -578.886     580.278    -268.068
  O     -577.614     580.897    -268.210
  P     -576.443     580.424    -267.220
  C     -575.487     578.754    -268.973
  O     -576.067     578.931    -267.681
  C     -574.061     578.228    -268.849
  O     -574.080     576.932    -268.222
  C     -573.343     578.031    -270.180
  O     -572.810     579.248    -270.672
  C     -572.238     577.073    -269.766
  O     -571.148     577.811    -269.180
  C     -572.926     576.193    -268.710
  N     -571.484     571.812    -270.803
  C     -570.721     572.897    -270.409
  N     -569.383     572.789    -270.569
  N     -571.230     573.994    -269.900
  C     -572.581     573.948    -269.770
  C     -573.432     572.935    -270.120
  C     -572.872     571.754    -270.732
  O     -573.495     570.784    -271.157
  N     -574.740     573.248    -269.809
  C     -574.653     574.437    -269.232
  N     -573.371     574.906    -269.205
  O     -577.215     580.194    -265.834
  O     -575.306     581.372    -267.073
  H     -570.689     578.261    -269.909
  H     -576.587     580.288    -265.087
  H     -571.034     570.994    -271.175
  H     -575.504     574.969    -268.821
  H     -572.270     576.023    -267.841
  H     -571.819     576.515    -270.613
  H     -568.936     571.923    -270.836
  H     -574.001     577.544    -270.909
  H     -568.811     573.561    -270.247
  H     -573.494     578.913    -268.198
  H     -575.470     579.721    -269.488
  H     -576.103     578.058    -269.543
  P     -572.428     579.278    -272.239
  C     -574.156     581.076    -272.988
  O     -573.783     579.706    -272.993
  O     -572.268     577.730    -272.607
  O     -571.213     580.070    -272.563
  H     -571.663     577.619    -273.374
  H     -573.282     581.733    -273.060
  H     -574.712     581.299    -272.072
  H     -574.800     581.261    -273.855
  H     -579.564     580.688    -268.787
  H     -579.261     580.456    -267.082
  H     -578.790     579.224    -268.228

 3  4  5  6  7  8  9  10  11  12  23  26  30  31  33  0
 6-311+G(2d,p)
 ****
 35  36  37  38 0
 6-311+G(2d,p)
 ****
 1  2  13  14  15  16  17  18  19  20  21  22  24  25  27  28  29 0
 3-21G
 ****
 32  34  39  40  41  42  43  44  45  46  47  48  49 0
 3-21G
 ****


