%nproc=1
%NoSave
%Mem=1900MB
#P OB98/GEN NMR

erre ene a

0 1
  C      646.176     125.771     366.674
  O      647.145     125.892     367.699
  H      646.632     126.072     365.721
  H      645.331     126.432     366.880
  H      645.832     124.735     366.591
  P      646.739     125.338     369.142
  C      646.175     127.850     369.668
  O      645.861     126.475     369.860
  C      644.908     128.653     369.414
  O      644.341     128.342     368.124
  C      643.773     128.329     370.384
  O      644.003     128.837     371.678
  C      642.601     129.003     369.665
  O      642.602     130.425     369.883
  C      642.924     128.673     368.184
  N      642.095     127.590     367.659
  C      640.734     127.884     367.522
  O      640.304     129.008     367.823
  N      639.893     126.902     367.069
  C      640.365     125.732     366.761
  N      639.476     124.799     366.326
  C      641.799     125.388     366.863
  C      642.594     126.351     367.333
  O      648.125     125.403     369.945
  O      646.084     123.996     369.147
  H      641.862     130.776     369.358
  H      648.547     126.281     369.924
  H      642.141     124.405     366.597
  H      643.667     126.184     367.436
  H      642.773     129.560     367.555
  H      641.640     128.627     370.017
  H      643.576     127.254     370.409
  H      645.158     129.719     369.430
  H      638.496     125.065     366.286
  H      646.886     127.977     368.853
  H      639.718     123.853     366.101
  H      646.663     128.202     370.584
  P      644.284     127.834     372.907
  C      642.206     128.826     374.068
  O      642.872     127.632     373.645
  O      645.412     128.229     373.800
  O      644.492     126.417     372.185
  H      643.726     126.114     371.658
  H      641.282     128.570     374.544
  H      642.010     129.445     373.218
  H      642.828     129.356     374.759

 6  7  8  9  10  11  12  13  14  15  16  26  30  31  32  33  35 0
 6-311+G(2d,p)
 ****
 37  38 0
 6-311+G(2d,p)
 ****
 1  2  3  4  5  17  18  19  20  21  22  23  24  25 0
 3-21G
 ****
 27  28  29  34  36  39  40  41  42  43  44  45  46 0
 3-21G
 ****


