%nproc=1
%NoSave
%Mem=1900MB
#P OB98/GEN NMR

erre ene a

0 1
  C     -119.908      78.563     596.370
  O     -121.305      78.761     596.340
  H     -119.678      77.624     595.862
  H     -119.566      78.495     597.407
  H     -119.383      79.374     595.860
  P     -121.891      80.201     596.721
  C     -122.708      81.086     594.439
  O     -123.075      80.518     595.689
  C     -123.682      82.205     594.042
  O     -123.103      82.967     592.953
  C     -125.011      81.637     593.536
  O     -126.096      82.532     593.762
  C     -124.775      81.515     592.039
  O     -125.983      81.503     591.281
  C     -123.890      82.732     591.773
  N     -123.267      83.417     586.761
  C     -124.408      83.552     587.525
  N     -125.533      83.924     586.865
  N     -124.453      83.324     588.812
  C     -123.273      82.894     589.323
  C     -122.081      82.697     588.664
  C     -122.039      82.991     587.245
  O     -121.059      82.864     586.517
  N     -121.104      82.246     589.516
  C     -121.706      82.161     590.688
  N     -123.018      82.567     590.625
  O     -120.739      81.212     596.249
  O     -122.234      80.397     598.167
  H     -126.533      80.775     591.622
  H     -120.814      82.056     596.727
  H     -123.282      83.634     585.779
  H     -121.237      81.828     591.603
  H     -124.502      83.624     591.595
  H     -124.263      80.565     591.849
  H     -125.583      83.913     585.859
  H     -125.251      80.672     593.972
  H     -126.419      83.723     587.335
  H     -123.816      82.900     594.880
  H     -122.732      80.279     593.703
  H     -121.685      81.461     594.479
  P     -126.910      82.422     595.138
  C     -125.674      83.974     596.890
  O     -126.731      83.765     595.983
  O     -126.090      81.337     595.975
  O     -128.344      82.038     594.979
  H     -126.633      80.541     596.125
  H     -125.769      84.944     597.331
  H     -124.741      83.908     596.371
  H     -125.709      83.228     597.657

 6  7  8  9  10  11  12  13  14  15  26  29  33  34 0
 6-311+G(2d,p)
 ****
 36  38  39  40  41 0
 6-311+G(2d,p)
 ****
 1  2  3  4  5  16  17  18  19  20  21  22  23  24  25 0
 3-21G
 ****
 27  28  30  31  32  35  37  42  43  44  45  46  47 0
 3-21G
 ****
 48  49 0
 3-21G
 ****


