%nproc=1
%NoSave
%Mem=1900MB
#P OB98/GEN NMR

erre ene a

0 1
  C      -37.698    -120.998      43.151
  O      -38.647    -120.891      44.192
  H      -38.061    -120.432      42.292
  H      -37.572    -122.042      42.855
  H      -36.738    -120.580      43.466
  P      -38.385    -121.688      45.557
  C      -39.255    -124.053      44.992
  O      -38.113    -123.218      45.157
  C      -38.919    -125.492      45.396
  O      -38.400    -125.462      46.749
  C      -40.152    -126.412      45.373
  O      -39.947    -127.593      44.602
  C      -40.494    -126.568      46.849
  O      -41.184    -127.762      47.164
  C      -39.139    -126.409      47.543
  N      -39.234    -125.956      48.929
  C      -40.071    -126.674      49.781
  O      -40.721    -127.666      49.460
  N      -40.139    -126.214      51.069
  C      -39.486    -125.125      51.571
  O      -39.585    -124.762      52.737
  C      -38.641    -124.390      50.617
  C      -38.557    -124.832      49.361
  O      -39.415    -121.496      46.622
  O      -36.944    -121.180      46.035
  H      -41.503    -127.674      48.087
  H      -37.049    -120.562      46.783
  H      -40.728    -126.733      51.701
  H      -38.118    -123.517      50.978
  H      -37.939    -124.315      48.630
  H      -38.592    -127.353      47.542
  H      -41.145    -125.737      47.143
  H      -40.991    -125.923      44.864
  H      -38.121    -125.868      44.745
  H      -39.550    -124.013      43.939
  H      -40.077    -123.677      45.610
  P      -40.421    -127.800      43.096
  C      -42.839    -128.834      43.139
  O      -42.018    -127.680      43.042
  O      -39.810    -128.949      42.368
  O      -39.940    -126.448      42.357
  H      -39.728    -126.702      41.433
  H      -43.868    -128.546      43.083
  H      -42.657    -129.324      44.073
  H      -42.611    -129.502      42.335

 6  7  8  9  10  11  12  13  14  15  16  26  31  32  33  34  35 0
 6-311+G(2d,p)
 ****
 36  37 0
 6-311+G(2d,p)
 ****
 1  2  3  4  5  17  18  19  20  21  22  23  24  25 0
 3-21G
 ****
 27  28  29  30  38  39  40  41  42  43  44  45 0
 3-21G
 ****


