%nproc=1
%NoSave
%Mem=1900MB
#P OB98/GEN NMR

erre ene a

0 1
  C      -12.548    -422.178     167.534
  O      -13.282    -422.307     168.735
  P      -13.508    -423.699     169.480
  C      -15.992    -424.339     169.040
  O      -15.052    -423.771     169.943
  C      -17.430    -424.347     169.593
  O      -17.505    -425.221     170.737
  C      -17.796    -422.941     170.106
  O      -18.265    -421.955     169.206
  C      -18.695    -423.184     171.322
  O      -20.085    -423.074     171.000
  C      -18.348    -424.618     171.732
  N      -18.635    -423.640     176.702
  C      -19.651    -423.646     175.754
  N      -20.837    -423.151     176.157
  N      -19.487    -424.085     174.529
  C      -18.214    -424.463     174.253
  C      -17.141    -424.513     175.111
  C      -17.338    -424.072     176.472
  O      -16.450    -423.968     177.316
  N      -15.986    -424.879     174.460
  C      -16.355    -425.013     173.205
  N      -17.690    -424.729     173.019
  O      -12.445    -424.137     170.440
  O      -13.488    -424.727     168.234
  H      -20.592    -423.343     171.778
  H      -13.080    -425.560     168.550
  H      -18.799    -423.221     177.613
  H      -15.695    -425.272     172.384
  H      -19.254    -425.233     171.784
  H      -18.493    -422.442     172.105
  H      -20.955    -422.674     177.038
  H      -16.878    -422.506     170.521
  H      -21.543    -422.980     175.447
  H      -18.134    -424.742     168.862
  H      -15.667    -425.362     168.817
  H      -15.978    -423.781     168.098
  P      -17.711    -420.460     169.065
  C      -19.631    -418.768     168.958
  O      -18.767    -419.607     168.214
  O      -16.470    -420.600     168.057
  O      -17.270    -419.825     170.345
  H      -15.863    -419.838     168.173
  H      -20.479    -418.479     168.337
  H      -19.085    -417.861     169.260
  H      -19.996    -419.279     169.862
  H      -12.537    -421.152     167.231
  H      -13.007    -422.770     166.770
  H      -11.545    -422.514     167.691

 3  4  5  6  7  8  9  10  11  12  23  26  30  31 0
 6-311+G(2d,p)
 ****
 33  35  36  37  38 0
 6-311+G(2d,p)
 ****
 1  2  13  14  15  16  17  18  19  20  21  22  24  25 0
 3-21G
 ****
 27  28  29  32  34  39  40  41  42  43  44  45  46  47  48  49 0
 3-21G
 ****


