%nproc=1
%NoSave
%Mem=1900MB
#P OB98/GEN NMR

erre ene a

0 1
  C      158.943     -87.136    -745.549
  O      159.122     -85.860    -744.962
  H      159.916     -87.622    -745.689
  H      158.335     -87.748    -744.883
  H      158.430     -87.045    -746.509
  P      160.015     -84.814    -745.800
  C      162.392     -85.455    -744.997
  O      161.440     -85.519    -746.049
  C      163.665     -86.197    -745.391
  O      164.758     -85.693    -744.574
  C      163.581     -87.731    -745.196
  O      164.014     -88.413    -746.379
  C      164.585     -88.008    -744.083
  O      165.250     -89.261    -744.243
  C      165.550     -86.831    -744.195
  N      169.743     -84.777    -742.138
  C      169.137     -84.565    -743.327
  N      167.963     -85.066    -743.776
  C      167.393     -85.848    -742.841
  C      167.885     -86.143    -741.575
  C      169.124     -85.581    -741.226
  N      169.769     -85.846    -740.051
  N      167.013     -86.993    -740.900
  C      166.052     -87.237    -741.755
  N      166.247     -86.585    -742.947
  O      160.334     -83.671    -744.722
  O      159.344     -84.258    -747.007
  H      165.915     -89.324    -743.520
  H      159.962     -82.828    -745.043
  H      169.657     -83.899    -744.005
  H      165.220     -87.921    -741.592
  H      166.300     -86.992    -744.986
  H      164.066     -88.003    -743.122
  H      162.577     -88.066    -744.913
  H      163.906     -85.963    -746.437
  H      161.969     -85.918    -744.094
  H      170.710     -85.501    -739.934
  H      169.366     -86.528    -739.421
  H      162.611     -84.399    -744.780
  P      162.850     -88.753    -747.445
  C      162.019     -91.016    -746.452
  O      161.735     -89.637    -746.695
  O      163.567     -89.799    -748.439
  O      162.340     -87.571    -748.192
  H      163.528     -89.471    -749.361
  H      161.189     -91.468    -745.950
  H      162.894     -91.098    -745.841
  H      162.187     -91.515    -747.383

 6  7  8  9  10  11  12  13  14  15  25  28  32  33  34  35 0
 6-311+G(2d,p)
 ****
 36  39  40 0
 6-311+G(2d,p)
 ****
 1  2  3  4  5  16  17  18  19  20  21  22  23  24 0
 3-21G
 ****
 26  27  29  30  31  37  38  41  42  43  44  45  46  47  48 0
 3-21G
 ****


