%nproc=1
%NoSave
%Mem=1900MB
#P OB98/GEN NMR

erre ene a

0 1
  C     -133.705    -287.090     122.657
  O     -133.390    -286.169     123.687
  P     -131.998    -285.381     123.600
  C     -130.532    -287.379     124.374
  O     -130.836    -286.457     123.336
  C     -129.021    -287.468     124.597
  O     -128.408    -288.192     123.497
  C     -128.331    -286.102     124.682
  O     -127.230    -286.182     125.597
  C     -127.752    -285.913     123.294
  O     -126.656    -285.000     123.303
  C     -127.377    -287.353     122.942
  N     -124.255    -287.090     118.976
  C     -123.964    -287.061     120.325
  N     -122.671    -286.846     120.657
  N     -124.855    -287.233     121.264
  C     -126.108    -287.432     120.784
  C     -126.519    -287.496     119.471
  C     -125.522    -287.291     118.440
  O     -125.718    -287.275     117.232
  N     -127.861    -287.747     119.377
  C     -128.276    -287.793     120.626
  N     -127.256    -287.571     121.515
  O     -131.751    -284.922     125.114
  O     -132.004    -284.207     122.680
  H     -126.930    -284.231     123.841
  H     -131.929    -283.969     125.204
  H     -123.533    -286.939     118.291
  H     -129.300    -287.955     120.942
  H     -126.427    -287.646     123.407
  H     -128.518    -285.520     122.616
  H     -121.948    -286.640     119.983
  H     -128.990    -285.278     124.975
  H     -122.439    -286.777     121.639
  H     -128.836    -288.051     125.507
  H     -130.909    -288.365     124.097
  H     -131.030    -287.068     125.298
  P     -126.968    -284.876     126.497
  C     -125.043    -283.902     125.040
  O     -126.374    -283.772     125.503
  O     -125.716    -285.294     127.400
  O     -128.144    -284.453     127.316
  H     -125.709    -284.783     128.230
  H     -125.061    -284.031     123.954
  H     -124.530    -284.753     125.493
  H     -124.494    -282.988     125.281
  H     -134.659    -287.533     122.854
  H     -132.957    -287.855     122.621
  H     -133.737    -286.578     121.718

 3  4  5  6  7  8  9  10  11  12  23  26  30  31 0
 6-311+G(2d,p)
 ****
 33  35  36  37  38 0
 6-311+G(2d,p)
 ****
 1  2  13  14  15  16  17  18  19  20  21  22  24  25 0
 3-21G
 ****
 27  28  29  32  34  39  40  41  42  43  44  45  46  47  48  49 0
 3-21G
 ****


