%nproc=1
%NoSave
%Mem=1900MB
#P OB98/GEN NMR

erre ene a

0 1
  C      251.766     120.065      84.844
  O      251.523     119.323      86.023
  H      250.993     120.831      84.745
  H      251.731     119.410      83.969
  H      252.743     120.553      84.904
  P      252.491     118.069      86.292
  C      250.854     116.619      84.869
  O      252.182     117.085      85.059
  C      250.693     116.067      83.458
  O      250.620     117.139      82.492
  C      251.844     115.181      82.989
  O      251.805     113.871      83.529
  C      251.585     115.184      81.493
  O      250.464     114.330      81.195
  C      251.235     116.672      81.261
  N      252.402     117.490      80.923
  C      252.880     117.389      79.611
  O      252.335     116.644      78.798
  N      253.994     118.114      79.258
  C      254.569     118.886      80.127
  N      255.668     119.577      79.719
  C      254.091     119.032      81.514
  C      253.018     118.314      81.841
  O      251.793     117.321      87.522
  O      253.934     118.388      86.498
  H      250.403     114.280      80.223
  H      252.231     116.447      87.678
  H      254.610     119.678      82.209
  H      252.609     118.369      82.844
  H      250.489     116.778      80.463
  H      252.428     114.817      80.906
  H      252.816     115.651      83.180
  H      249.738     115.526      83.418
  H      256.005     119.410      78.779
  H      250.169     117.463      85.022
  H      256.267     120.082      80.356
  H      250.621     115.837      85.595
  P      253.186     113.256      84.072
  C      253.752     112.274      81.727
  O      254.157     113.105      82.806
  O      252.799     111.746      84.423
  O      253.774     113.974      85.248
  H      253.303     111.426      85.198
  H      254.506     112.282      80.968
  H      252.833     112.641      81.320
  H      253.612     111.274      82.080

 6  7  8  9  10  11  12  13  14  15  16  26  30  31  32  33  35 0
 6-311+G(2d,p)
 ****
 37  38 0
 6-311+G(2d,p)
 ****
 1  2  3  4  5  17  18  19  20  21  22  23  24  25 0
 3-21G
 ****
 27  28  29  34  36  39  40  41  42  43  44  45  46 0
 3-21G
 ****


