%nproc=1
%NoSave
%Mem=1900MB
#P OB98/GEN NMR

erre ene a

0 1
  C      -44.559    -453.008      28.143
  O      -44.493    -454.179      28.935
  P      -45.821    -454.571      29.760
  C      -46.888    -453.640      31.958
  O      -45.726    -453.788      31.162
  C      -46.490    -453.471      33.421
  O      -45.555    -452.384      33.571
  C      -47.651    -453.164      34.360
  O      -48.333    -454.357      34.713
  C      -46.932    -452.500      35.527
  O      -46.347    -453.492      36.404
  C      -45.839    -451.690      34.816
  N      -44.490    -446.860      35.475
  C      -43.970    -448.012      36.038
  N      -42.905    -447.854      36.853
  N      -44.441    -449.210      35.808
  C      -45.518    -449.210      34.984
  C      -46.135    -448.137      34.385
  C      -45.570    -446.824      34.600
  O      -45.929    -445.783      34.056
  N      -47.210    -448.532      33.629
  C      -47.224    -449.846      33.749
  N      -46.202    -450.310      34.542
  O      -45.562    -456.100      30.157
  O      -47.110    -454.370      29.026
  H      -45.794    -454.092      35.880
  H      -46.029    -456.698      29.537
  H      -44.076    -445.964      35.676
  H      -47.931    -450.499      33.274
  H      -44.901    -451.662      35.393
  H      -47.611    -451.899      36.148
  H      -42.497    -446.966      37.096
  H      -48.340    -452.445      33.900
  H      -42.506    -448.689      37.275
  H      -45.971    -454.390      33.743
  H      -47.513    -454.535      31.856
  H      -47.455    -452.770      31.608
  P      -49.936    -454.290      34.785
  C      -51.665    -453.014      36.242
  O      -50.316    -453.416      36.073
  O      -50.342    -455.791      35.204
  O      -50.603    -453.892      33.513
  H      -51.178    -456.037      34.759
  H      -51.871    -452.924      37.315
  H      -52.362    -453.735      35.805
  H      -51.810    -452.044      35.762
  H      -43.622    -452.858      27.649
  H      -44.772    -452.166      28.768
  H      -45.334    -453.115      27.413

 3  4  5  6  7  8  9  10  11  12  23  26  30  31 0
 6-311+G(2d,p)
 ****
 33  35  36  37  38 0
 6-311+G(2d,p)
 ****
 1  2  13  14  15  16  17  18  19  20  21  22  24  25 0
 3-21G
 ****
 27  28  29  32  34  39  40  41  42  43  44  45  46  47  48  49 0
 3-21G
 ****


