%nproc=1
%NoSave
%Mem=1900MB
#P OB98/GEN NMR

erre ene a

0 1
  C      484.367     -94.058     106.450
  O      485.076     -94.378     105.246
  P      484.656     -95.616     104.316
  C      482.869     -96.077     102.518
  O      483.666     -95.088     103.168
  C      481.542     -95.490     102.011
  O      480.763     -94.969     103.103
  C      481.698     -94.344     101.017
  O      482.013     -94.842      99.727
  C      480.342     -93.662     101.135
  O      479.359     -94.357     100.342
  C      480.035     -93.817     102.626
  N      478.639     -89.045     103.821
  C      478.065     -89.988     103.040
  N      478.503     -91.232     102.766
  C      479.647     -91.487     103.421
  C      480.349     -90.626     104.249
  C      479.800     -89.347     104.442
  N      480.398     -88.386     105.230
  N      481.500     -91.228     104.719
  C      481.478     -92.442     104.197
  N      480.378     -92.644     103.408
  O      484.145     -96.801     105.070
  O      485.989     -95.990     103.511
  H      479.688     -94.394      99.429
  H      485.980     -96.938     103.279
  H      477.126     -89.694     102.567
  H      482.232     -93.206     104.364
  H      478.974     -94.029     102.802
  H      480.360     -92.623     100.789
  H      482.484     -93.659     101.356
  H      480.968     -96.313     101.562
  H      482.657     -96.879     103.238
  H      479.960     -87.478     105.288
  H      481.288     -88.585     105.655
  H      483.440     -96.489     101.682
  P      483.196     -94.176      98.876
  C      485.723     -93.812      99.148
  O      484.555     -94.398      99.696
  O      482.955     -92.780      98.412
  O      483.375     -95.175      97.633
  H      483.695     -94.675      96.858
  H      486.107     -94.456      98.350
  H      486.478     -93.737      99.932
  H      485.516     -92.816      98.760
  H      484.814     -93.201     106.910
  H      484.413     -94.889     107.123
  H      483.345     -93.845     106.216

 3  4  5  6  7  8  9  10  11  12  22  25  29  30  31  32 0
 6-311+G(2d,p)
 ****
 33  36  37 0
 6-311+G(2d,p)
 ****
 1  2  13  14  15  16  17  18  19  20  21  23  24  26 0
 3-21G
 ****
 27  28  34  35  38  39  40  41  42  43  44  45  46  47  48 0
 3-21G
 ****


