%nproc=1
%NoSave
%Mem=1900MB
#P OB98/GEN NMR

erre ene a

0 1
  C      224.389    -406.238     176.665
  O      223.333    -406.044     175.715
  P      221.878    -406.595     176.096
  C      220.867    -404.379     177.023
  O      221.300    -405.706     177.300
  C      219.404    -404.203     177.416
  O      219.178    -404.602     178.785
  C      218.928    -402.762     177.343
  O      218.670    -402.388     176.004
  C      217.682    -402.790     178.225
  O      216.502    -403.101     177.472
  C      218.002    -403.911     179.241
  N      218.178    -403.409     180.596
  C      217.009    -403.312     181.368
  O      215.924    -403.619     180.883
  N      217.112    -402.845     182.655
  C      218.272    -402.477     183.123
  N      218.307    -402.022     184.399
  C      219.517    -402.542     182.337
  C      219.398    -403.010     181.087
  O      222.190    -408.000     176.793
  O      220.965    -406.751     174.926
  H      216.646    -404.003     177.113
  H      221.474    -408.631     176.614
  H      220.457    -402.220     182.757
  H      220.264    -403.095     180.435
  H      217.191    -404.648     179.257
  H      217.510    -401.814     178.699
  H      219.683    -402.094     177.788
  H      218.791    -404.835     176.761
  H      217.435    -401.992     184.909
  H      220.999    -404.151     175.959
  H      219.150    -401.706     184.856
  H      221.515    -403.676     177.578
  P      219.370    -401.069     175.442
  C      221.094    -402.407     174.076
  O      220.897    -401.504     175.144
  O      219.543    -400.188     176.772
  O      218.674    -400.323     174.355
  H      219.880    -399.300     176.545
  H      222.164    -402.454     173.846
  H      220.560    -402.059     173.177
  H      220.752    -403.406     174.356
  H      225.297    -405.823     176.279
  H      224.522    -407.285     176.841
  H      224.136    -405.751     177.584

 3  4  5  6  7  8  9  10  11  12  13  21  23  27  28  29  30  32 0
 6-311+G(2d,p)
 ****
 34  35 0
 6-311+G(2d,p)
 ****
 1  2  14  15  16  17  18  19  20  22  24  25  26 0
 3-21G
 ****
 31  33  36  37  38  39  40  41  42  43  44  45  46 0
 3-21G
 ****


