%nproc=1
%NoSave
%Mem=1900MB
#P OB98/GEN NMR

erre ene a

0 1
  C     -408.057     523.044    -397.991
  O     -406.832     523.722    -397.751
  P     -405.478     522.903    -397.458
  C     -404.576     523.399    -399.836
  O     -404.381     523.563    -398.430
  C     -404.332     524.736    -400.538
  O     -405.284     525.719    -400.077
  C     -402.958     525.348    -400.287
  O     -401.957     524.693    -401.041
  C     -403.216     526.797    -400.656
  O     -403.171     526.965    -402.090
  C     -404.657     527.014    -400.153
  N     -404.699     527.701    -398.866
  C     -404.730     529.093    -398.891
  O     -404.718     529.708    -399.964
  N     -404.795     529.777    -397.707
  C     -404.813     529.127    -396.581
  N     -404.950     529.852    -395.434
  C     -404.733     527.660    -396.492
  C     -404.684     526.997    -397.659
  O     -405.605     521.418    -397.582
  O     -405.009     523.397    -396.020
  H     -402.256     526.784    -402.383
  H     -405.399     522.875    -395.270
  H     -404.729     527.168    -395.532
  H     -404.629     525.939    -397.694
  H     -405.230     527.589    -400.886
  H     -402.479     527.502    -400.239
  H     -402.700     525.280    -399.216
  H     -404.485     524.584    -401.621
  H     -405.184     530.832    -395.548
  H     -405.614     523.087    -400.011
  H     -405.247     529.426    -394.574
  H     -403.901     522.631    -400.213
  P     -400.434     524.811    -400.540
  C     -400.308     522.815    -398.903
  O     -399.958     523.324    -400.182
  O     -400.573     525.553    -399.123
  O     -399.540     525.562    -401.478
  H     -400.367     526.504    -399.205
  H     -400.124     521.736    -398.902
  H     -401.371     522.982    -398.695
  H     -399.702     523.269    -398.132
  H     -408.833     523.760    -398.163
  H     -408.306     522.446    -397.140
  H     -407.954     522.415    -398.851

 3  4  5  6  7  8  9  10  11  12  13  23  27  28  29  30  32 0
 6-311+G(2d,p)
 ****
 34  35 0
 6-311+G(2d,p)
 ****
 1  2  14  15  16  17  18  19  20  21  22  24  25  26 0
 3-21G
 ****
 31  33  36  37  38  39  40  41  42  43  44  45  46 0
 3-21G
 ****


