%nproc=1
%NoSave
%Mem=1900MB
#P OB98/GEN NMR

erre ene a

0 1
  C     -180.160      -4.792     260.577
  O     -179.343      -4.348     261.635
  H     -180.790      -5.629     260.901
  H     -180.806      -3.970     260.257
  H     -179.540      -5.105     259.730
  P     -178.394      -5.449     262.318
  C     -176.262      -3.977     262.385
  O     -177.272      -4.643     263.134
  C     -175.612      -2.890     263.233
  O     -176.518      -1.780     263.411
  C     -175.229      -3.322     264.642
  O     -174.018      -4.072     264.661
  C     -175.061      -1.968     265.320
  O     -173.771      -1.422     264.999
  C     -176.167      -1.132     264.661
  N     -179.353       2.158     266.997
  C     -178.238       2.361     266.250
  N     -177.437       1.440     265.675
  C     -177.895       0.197     265.903
  C     -179.012      -0.163     266.638
  C     -179.760       0.882     267.213
  N     -180.884       0.673     267.976
  N     -179.175      -1.529     266.656
  C     -178.171      -1.995     265.941
  N     -177.365      -0.991     265.470
  O     -177.587      -6.065     261.078
  O     -179.103      -6.515     263.089
  H     -173.106      -2.028     265.385
  H     -177.438      -7.017     261.234
  H     -177.949       3.391     266.104
  H     -177.998      -3.049     265.730
  H     -175.808      -0.123     264.406
  H     -175.133      -2.020     266.413
  H     -176.044      -3.874     265.129
  H     -174.731      -2.516     262.689
  H     -176.715      -3.515     261.498
  H     -181.479       1.456     268.185
  H     -181.187      -0.286     268.125
  H     -175.513      -4.706     262.065
  P     -173.971      -5.381     265.591
  C     -171.985      -6.350     264.225
  O     -172.461      -5.916     265.494
  O     -174.802      -6.460     264.748
  O     -174.526      -5.201     266.961
  H     -175.177      -7.133     265.347
  H     -170.970      -6.676     264.317
  H     -172.038      -5.540     263.528
  H     -172.590      -7.161     263.876

 6  7  8  9  10  11  12  13  14  15  25  28  32  33  34  35 0
 6-311+G(2d,p)
 ****
 36  39  40 0
 6-311+G(2d,p)
 ****
 1  2  3  4  5  16  17  18  19  20  21  22  23  24 0
 3-21G
 ****
 26  27  29  30  31  37  38  41  42  43  44  45  46  47  48 0
 3-21G
 ****


