%nproc=1
%NoSave
%Mem=1900MB
#P OB98/GEN NMR

erre ene a

0 1
  C      556.103     -64.531     288.829
  O      556.449     -64.776     287.454
  P      555.295     -65.291     286.474
  C      555.756     -63.107     285.120
  O      554.796     -64.037     285.592
  C      555.504     -62.785     283.646
  O      555.832     -63.909     282.790
  C      554.070     -62.440     283.321
  O      553.749     -61.087     283.628
  C      554.036     -62.660     281.808
  O      554.604     -61.513     281.143
  C      554.941     -63.874     281.643
  N      552.674     -67.287     278.566
  C      553.268     -66.097     278.320
  N      553.824     -65.234     279.188
  C      553.759     -65.716     280.438
  C      553.187     -66.917     280.850
  C      552.631     -67.726     279.846
  N      552.031     -68.936     280.107
  N      553.299     -67.069     282.209
  C      553.936     -65.995     282.625
  N      554.229     -65.137     281.591
  O      554.057     -65.556     287.455
  O      555.658     -66.505     285.690
  H      554.682     -61.746     280.197
  H      553.534     -66.315     287.132
  H      553.291     -65.785     277.275
  H      554.203     -65.783     283.662
  H      555.552     -63.813     280.741
  H      553.013     -62.786     281.429
  H      553.370     -63.130     283.825
  H      556.155     -61.935     283.362
  H      556.766     -63.501     285.251
  H      551.676     -69.470     279.328
  H      552.008     -69.279     281.045
  H      555.698     -62.196     285.723
  P      552.797     -60.797     284.881
  C      554.650     -59.375     286.009
  O      553.777     -60.469     286.113
  O      552.205     -62.255     285.217
  O      551.730     -59.795     284.616
  H      551.315     -62.170     285.602
  H      555.013     -59.118     287.011
  H      554.147     -58.507     285.584
  H      555.516     -59.640     285.397
  H      556.969     -64.194     289.360
  H      555.743     -65.435     289.273
  H      555.341     -63.782     288.877

 3  4  5  6  7  8  9  10  11  12  22  25  29  30  31  32 0
 6-311+G(2d,p)
 ****
 33  36  37 0
 6-311+G(2d,p)
 ****
 1  2  13  14  15  16  17  18  19  20  21  23  24  26 0
 3-21G
 ****
 27  28  34  35  38  39  40  41  42  43  44  45  46  47  48 0
 3-21G
 ****


