%nproc=1
%NoSave
%Mem=1900MB
#P OB98/GEN NMR

erre ene a

0 1
  C        5.433      47.939      78.027
  O        5.842      47.138      76.936
  P        7.147      47.501      76.086
  C        5.966      49.456      74.924
  O        6.678      48.240      74.743
  C        5.033      49.734      73.745
  O        4.116      50.803      74.100
  C        5.757      50.145      72.455
  O        5.050      49.544      71.364
  C        5.591      51.652      72.434
  O        5.730      52.194      71.127
  C        4.198      51.795      73.056
  N        3.953      53.132      73.573
  C        3.566      54.106      72.649
  O        3.571      53.852      71.443
  N        3.198      55.343      73.117
  C        3.387      55.636      74.367
  N        2.947      56.847      74.804
  C        4.030      54.708      75.321
  C        4.244      53.473      74.874
  O        8.097      46.369      75.872
  O        7.845      48.679      76.919
  H        8.777      48.442      77.091
  H        5.313      53.082      71.106
  H        4.281      55.040      76.317
  H        4.687      52.711      75.505
  H        3.420      51.553      72.319
  H        6.348      52.115      73.077
  H        6.801      49.819      72.433
  H        4.430      48.836      73.569
  H        2.475      57.440      74.132
  H        6.693      50.268      75.001
  H        2.760      57.033      75.789
  H        5.402      49.421      75.862
  P        5.861      48.574      70.372
  C        7.264      50.691      69.832
  O        6.688      49.493      69.351
  O        4.681      48.015      69.434
  O        6.591      47.433      71.002
  H        4.949      47.151      69.068
  H        7.726      51.215      68.993
  H        8.036      50.470      70.575
  H        6.499      51.337      70.272
  H        4.544      47.528      78.458
  H        5.236      48.934      77.685
  H        6.209      47.962      78.763

 3  4  5  6  7  8  9  10  11  12  13  24  27  28  29  30  32 0
 6-311+G(2d,p)
 ****
 34  35 0
 6-311+G(2d,p)
 ****
 1  2  14  15  16  17  18  19  20  21  22  23  25  26 0
 3-21G
 ****
 31  33  36  37  38  39  40  41  42  43  44  45  46 0
 3-21G
 ****


