%nproc=1
%NoSave
%Mem=1900MB
#P OB98/GEN NMR

erre ene a

0 1
  C      471.880    -892.788     122.401
  O      473.131    -893.438     122.279
  H      471.903    -892.178     123.294
  H      471.082    -893.538     122.498
  H      471.691    -892.148     121.517
  P      473.443    -894.288     120.947
  C      475.549    -895.218     119.779
  O      475.038    -894.338     120.776
  C      477.078    -895.198     119.801
  O      477.568    -893.858     119.501
  C      477.666    -895.518     121.171
  O      477.616    -896.928     121.428
  C      479.089    -894.958     121.022
  O      479.928    -895.868     120.313
  C      478.813    -893.668     120.203
  N      478.782    -892.458     121.024
  C      479.976    -892.048     121.591
  O      481.032    -892.668     121.421
  N      479.921    -890.918     122.350
  C      478.789    -890.228     122.696
  O      478.789    -889.258     123.450
  C      477.533    -890.738     122.099
  C      477.591    -891.788     121.319
  O      472.678    -893.888     119.724
  O      473.092    -895.798     121.384
  H      480.837    -895.528     120.387
  H      472.224    -896.048     120.989
  H      480.778    -890.618     122.773
  H      476.614    -890.208     122.347
  H      476.672    -892.178     120.855
  H      479.592    -893.538     119.442
  H      479.549    -894.778     121.977
  H      477.151    -894.968     121.963
  H      477.465    -895.878     119.039
  H      475.193    -894.858     118.790
  H      475.168    -896.238     119.958
  P      478.289    -897.508     122.749
  C      477.648    -899.278     124.510
  O      477.170    -898.348     123.535
  O      479.042    -896.518     123.584
  O      479.291    -898.648     122.201
  H      480.195    -898.438     122.454
  H      476.817    -899.776     124.965
  H      478.205    -898.755     125.259
  H      478.279    -900.000     124.035

 6  7  8  9  10  11  12  13  14  15  16  26  31  32  33  34  35 0
 6-311+G(2d,p)
 ****
 36  37 0
 6-311+G(2d,p)
 ****
 1  2  3  4  5  17  18  19  20  21  22  23  24  25 0
 3-21G
 ****
 27  28  29  30  38  39  40  41  42  43  44  45 0
 3-21G
 ****


