%nproc=1
%NoSave
%Mem=1900MB
#P OB98/GEN NMR

erre ene a

0 1
  C     -250.902     420.496     251.396
  O     -251.147     419.744     250.224
  H     -251.813     421.005     251.719
  H     -250.577     419.814     252.186
  H     -250.108     421.227     251.213
  P     -251.736     420.554     248.971
  C     -253.856     419.075     249.161
  O     -253.333     420.389     249.033
  C     -255.380     419.120     249.208
  O     -255.824     419.681     250.461
  C     -256.027     419.980     248.131
  O     -256.080     419.311     246.877
  C     -257.415     420.173     248.721
  O     -258.219     419.008     248.459
  C     -257.123     420.282     250.226
  N     -259.725     423.884     252.797
  C     -260.033     422.609     252.474
  N     -259.300     421.716     251.782
  C     -258.119     422.245     251.418
  C     -257.669     423.527     251.674
  C     -258.531     424.373     252.395
  N     -258.213     425.678     252.702
  N     -256.405     423.713     251.159
  C     -256.094     422.560     250.597
  N     -257.104     421.644     250.723
  O     -251.321     419.650     247.714
  O     -251.241     421.954     248.824
  H     -259.075     419.153     248.908
  H     -251.113     420.234     246.960
  H     -260.999     422.257     252.824
  H     -255.158     422.346     250.100
  H     -257.849     419.714     250.817
  H     -257.941     421.035     248.306
  H     -255.529     420.953     248.046
  H     -255.749     418.086     249.155
  H     -253.482     418.622     250.085
  H     -258.775     426.164     253.381
  H     -257.312     426.031     252.402
  H     -253.518     418.476     248.308
  P     -256.496     420.180     245.591
  C     -258.440     418.594     244.927
  O     -258.059     419.893     245.367
  O     -255.800     419.393     244.384
  O     -256.084     421.610     245.633
  H     -255.641     420.005     243.637
  H     -259.504     418.551     244.822
  H     -258.122     417.867     245.645
  H     -257.980     418.388     243.983

 6  7  8  9  10  11  12  13  14  15  25  28  32  33  34  35 0
 6-311+G(2d,p)
 ****
 36  39  40 0
 6-311+G(2d,p)
 ****
 1  2  3  4  5  16  17  18  19  20  21  22  23  24 0
 3-21G
 ****
 26  27  29  30  31  37  38  41  42  43  44  45  46  47  48 0
 3-21G
 ****


