%nproc=1
%NoSave
%Mem=1900MB
#P OB98/GEN NMR

erre ene a

0 1
  C     -113.574    -137.957     -86.664
  O     -113.650    -137.973     -85.252
  P     -112.506    -138.655     -84.359
  C     -113.898    -140.812     -84.515
  O     -112.609    -140.233     -84.648
  C     -113.903    -142.272     -84.978
  O     -113.657    -142.329     -86.410
  C     -112.856    -143.164     -84.292
  O     -113.444    -144.464     -84.184
  C     -111.723    -143.174     -85.302
  O     -110.827    -144.261     -85.114
  C     -112.512    -143.188     -86.619
  N     -111.697    -142.755     -87.750
  C     -110.843    -143.710     -88.310
  O     -110.744    -144.829     -87.804
  N     -110.080    -143.360     -89.397
  C     -110.092    -142.132     -89.817
  N     -109.319    -141.845     -90.900
  C     -110.882    -141.065     -89.176
  C     -111.666    -141.445     -88.167
  O     -112.520    -138.280     -82.915
  O     -111.149    -138.255     -85.110
  H     -110.052    -144.129     -85.703
  H     -110.910    -137.316     -84.909
  H     -110.817    -140.045     -89.526
  H     -112.282    -140.734     -87.636
  H     -112.896    -144.195     -86.832
  H     -111.144    -142.246     -85.219
  H     -112.542    -142.797     -83.313
  H     -114.907    -142.676     -84.805
  H     -108.803    -142.610     -91.320
  H     -114.592    -140.244     -85.140
  H     -109.319    -140.944     -91.358
  H     -114.240    -140.733     -83.477
  P     -113.329    -145.322     -82.834
  C     -111.185    -146.469     -83.645
  O     -111.778    -145.673     -82.635
  O     -114.254    -146.493     -82.747
  O     -113.618    -144.262     -81.667
  H     -113.817    -144.739     -80.836
  H     -110.096    -146.407     -83.555
  H     -111.480    -146.122     -84.641
  H     -111.493    -147.511     -83.518
  H     -114.432    -137.457     -87.062
  H     -113.545    -138.962     -87.031
  H     -112.687    -137.440     -86.968

 3  4  5  6  7  8  9  10  11  12  13  23  27  28  29  30  32 0
 6-311+G(2d,p)
 ****
 34  35 0
 6-311+G(2d,p)
 ****
 1  2  14  15  16  17  18  19  20  21  22  24  25  26 0
 3-21G
 ****
 31  33  36  37  38  39  40  41  42  43  44  45  46 0
 3-21G
 ****


