%nproc=1
%NoSave
%Mem=1900MB
#P OB98/GEN NMR

erre ene a

0 1
  C      562.112    -899.110    -445.205
  O      560.849    -899.700    -444.953
  H      562.884    -899.900    -445.177
  H      562.349    -898.350    -444.462
  H      562.119    -898.670    -446.211
  P      559.576    -898.730    -444.831
  C      558.758    -899.140    -447.246
  O      559.325    -898.220    -446.335
  C      557.629    -898.470    -448.041
  O      556.653    -897.890    -447.157
  C      558.083    -897.310    -448.938
  O      558.764    -897.740    -450.111
  C      556.735    -896.680    -449.244
  O      556.037    -897.470    -450.224
  C      556.051    -896.770    -447.852
  N      556.167    -895.540    -447.093
  C      554.976    -894.940    -446.673
  O      553.892    -895.420    -446.946
  N      555.043    -893.750    -445.972
  C      556.196    -893.210    -445.723
  N      556.202    -892.020    -445.058
  C      557.486    -893.820    -446.115
  C      557.386    -894.970    -446.792
  O      559.654    -897.660    -443.793
  O      558.342    -899.730    -444.620
  H      556.530    -897.400    -451.056
  H      557.527    -899.180    -444.541
  H      558.396    -893.330    -445.906
  H      558.288    -895.470    -447.136
  H      554.985    -897.000    -447.987
  H      556.826    -895.670    -449.649
  H      558.685    -896.590    -448.385
  H      557.114    -899.250    -448.633
  H      555.306    -891.620    -444.843
  H      558.392    -900.000    -446.690
  H      557.020    -891.420    -445.072
  H      559.522    -899.480    -447.958
  P      559.993    -896.850    -450.647
  C      561.941    -898.340    -449.789
  O      561.239    -897.120    -449.665
  O      559.532    -895.370    -450.248
  O      560.322    -896.990    -452.109
  H      559.091    -894.930    -451.006
  H      562.735    -898.369    -449.072
  H      562.348    -898.419    -450.776
  H      561.272    -899.156    -449.613

 6  7  8  9  10  11  12  13  14  15  16  26  30  31  32  33  35 0
 6-311+G(2d,p)
 ****
 37  38 0
 6-311+G(2d,p)
 ****
 1  2  3  4  5  17  18  19  20  21  22  23  24  25 0
 3-21G
 ****
 27  28  29  34  36  39  40  41  42  43  44  45  46 0
 3-21G
 ****


