%nproc=1
%NoSave
%Mem=1900MB
#P OB98/GEN NMR

erre ene a

0 1
  C       -2.406      41.294    -146.280
  O       -1.522      42.298    -146.748
  P       -1.507      42.633    -148.313
  C       -2.562      44.970    -147.880
  O       -2.635      43.741    -148.585
  C       -2.462      46.141    -148.860
  O       -2.885      47.367    -148.191
  C       -1.045      46.382    -149.402
  O       -1.174      46.859    -150.749
  C       -0.540      47.501    -148.512
  O        0.557      48.208    -149.071
  C       -1.822      48.326    -148.362
  N       -1.763      49.271    -147.249
  C       -2.088      50.597    -147.518
  O       -2.416      51.013    -148.627
  N       -1.962      51.466    -146.468
  C       -1.471      51.167    -145.230
  O       -1.273      52.016    -144.370
  C       -1.144      49.751    -145.003
  C       -1.303      48.882    -146.005
  O       -2.107      41.308    -148.978
  O       -0.163      42.975    -148.864
  H        1.301      47.583    -149.143
  H       -1.390      40.750    -149.334
  H       -2.204      52.429    -146.642
  H       -0.771      49.475    -144.026
  H       -1.050      47.835    -145.871
  H       -2.030      48.872    -149.291
  H       -0.217      47.084    -147.551
  H       -0.407      45.494    -149.371
  H       -3.162      45.965    -149.686
  H       -1.680      44.962    -147.238
  H       -3.443      45.078    -147.238
  P        0.125      46.806    -151.692
  C       -0.647      44.556    -152.775
  O        0.352      45.269    -152.078
  O        1.281      47.111    -150.624
  O        0.085      47.779    -152.825
  H        1.156      46.629    -149.790
  H       -1.184      45.199    -153.477
  H       -1.355      44.133    -152.059
  H       -0.177      43.742    -153.331
  H       -2.298      41.189    -145.221
  H       -2.174      40.364    -146.756
  H       -3.414      41.571    -146.510

 3  4  5  6  7  8  9  10  11  12  13  23  28  29  30  31  32 0
 6-311+G(2d,p)
 ****
 33  34 0
 6-311+G(2d,p)
 ****
 1  2  14  15  16  17  18  19  20  21  22  24  25  26 0
 3-21G
 ****
 27  35  36  37  38  39  40  41  42  43  44  45 0
 3-21G
 ****


