%nproc=1
%NoSave
%Mem=1900MB
#P OB98/GEN NMR

erre ene a

0 1
  C      179.869    -113.625    -212.079
  O      179.508    -114.508    -211.034
  H      180.545    -114.148    -212.763
  H      180.380    -112.741    -211.689
  H      178.978    -113.321    -212.639
  P      178.726    -113.899    -209.770
  C      179.196    -111.896    -208.208
  O      179.757    -112.877    -209.077
  C      180.077    -111.691    -206.974
  O      181.447    -111.481    -207.370
  C      179.708    -110.465    -206.152
  O      178.471    -110.573    -205.478
  C      180.977    -110.210    -205.356
  O      181.051    -110.963    -204.147
  C      182.074    -110.691    -206.339
  N      182.837    -109.580    -206.893
  C      183.794    -109.023    -206.053
  O      183.992    -109.407    -204.897
  N      184.499    -107.967    -206.565
  C      184.306    -107.399    -207.795
  O      184.943    -106.428    -208.180
  C      183.263    -108.016    -208.626
  C      182.585    -109.062    -208.147
  O      178.142    -114.903    -208.821
  O      177.639    -112.926    -210.428
  H      180.422    -110.560    -203.520
  H      176.929    -112.699    -209.780
  H      185.203    -107.559    -205.975
  H      183.081    -107.588    -209.605
  H      181.808    -109.535    -208.745
  H      182.779    -111.355    -205.823
  H      181.073    -109.154    -205.081
  H      179.600    -109.618    -206.839
  H      180.035    -112.601    -206.363
  H      178.210    -112.253    -207.894
  H      179.072    -110.954    -208.751
  P      177.605    -109.309    -205.026
  C      178.022    -107.066    -203.780
  O      178.571    -108.302    -204.225
  O      176.246    -109.585    -204.475
  O      177.410    -108.540    -206.432
  H      176.529    -108.116    -206.415
  H      178.775    -106.505    -203.267
  H      177.205    -107.257    -203.116
  H      177.673    -106.507    -204.623

 6  7  8  9  10  11  12  13  14  15  16  26  31  32  33  34  35 0
 6-311+G(2d,p)
 ****
 36  37 0
 6-311+G(2d,p)
 ****
 1  2  3  4  5  17  18  19  20  21  22  23  24  25 0
 3-21G
 ****
 27  28  29  30  38  39  40  41  42  43  44  45 0
 3-21G
 ****


