%nproc=1
%NoSave
%Mem=1900MB
#P OB98/GEN NMR

erre ene a

0 1
  C      352.398     192.637     539.155
  O      351.541     193.605     538.589
  H      352.641     192.938     540.177
  H      353.324     192.580     538.575
  H      351.923     191.654     539.184
  P      350.749     193.242     537.247
  C      351.189     193.462     534.713
  O      351.742     193.528     536.020
  C      352.050     194.234     533.709
  O      352.196     195.606     534.149
  C      353.461     193.637     533.642
  O      354.069     193.833     532.369
  C      354.217     194.449     534.685
  O      355.628     194.435     534.486
  C      353.573     195.826     534.512
  N      355.990     199.598     536.937
  C      356.329     198.956     535.763
  N      357.475     199.358     535.165
  N      355.618     197.995     535.227
  C      354.538     197.648     535.972
  C      354.116     198.191     537.162
  C      354.891     199.278     537.720
  O      354.647     199.872     538.766
  N      352.987     197.562     537.627
  C      352.730     196.632     536.726
  N      353.640     196.658     535.692
  O      349.676     194.426     537.108
  O      350.084     191.897     537.227
  H      355.801     194.766     533.585
  H      348.910     194.129     536.583
  H      356.565     200.340     537.294
  H      351.911     195.933     536.769
  H      354.056     196.376     533.692
  H      354.024     194.011     535.671
  H      358.138     199.961     535.625
  H      353.470     192.574     533.885
  H      357.884     198.713     534.482
  H      351.560     194.264     532.731
  H      350.189     193.903     534.762
  H      351.077     192.419     534.402
  P      354.831     192.583     531.714
  C      357.065     191.301     532.223
  O      356.256     192.446     532.433
  O      355.179     193.086     530.236
  O      354.021     191.329     531.700
  H      354.592     192.665     529.591
  H      357.970     191.396     532.785
  H      357.299     191.215     531.182
  H      356.537     190.427     532.543

 6  7  8  9  10  11  12  13  14  15  26  29  33  34 0
 6-311+G(2d,p)
 ****
 36  38  39  40  41 0
 6-311+G(2d,p)
 ****
 1  2  3  4  5  16  17  18  19  20  21  22  23  24  25 0
 3-21G
 ****
 27  28  30  31  32  35  37  42  43  44  45  46  47 0
 3-21G
 ****
 48  49 0
 3-21G
 ****


