%nproc=1
%NoSave
%Mem=1900MB
#P OB98/GEN NMR

erre ene a

0 1
  C     -322.929     190.243     -33.764
  O     -324.052     189.946     -34.594
  P     -323.926     190.366     -36.139
  C     -323.584     187.933     -36.973
  O     -323.053     189.246     -36.886
  C     -322.542     186.962     -37.530
  O     -321.400     186.826     -36.665
  C     -323.079     185.551     -37.735
  O     -323.828     185.486     -38.936
  C     -321.795     184.734     -37.784
  O     -321.216     184.749     -39.104
  C     -320.886     185.477     -36.792
  N     -318.037     182.582     -33.759
  C     -317.886     182.874     -35.100
  N     -316.810     182.340     -35.713
  N     -318.716     183.626     -35.777
  C     -319.746     184.093     -35.034
  C     -319.987     183.897     -33.694
  C     -319.065     183.059     -32.957
  O     -319.143     182.789     -31.765
  N     -321.099     184.585     -33.278
  C     -321.597     185.089     -34.392
  N     -320.778     184.874     -35.475
  O     -322.962     191.643     -36.095
  O     -325.236     190.687     -36.777
  H     -320.424     184.180     -39.111
  H     -323.469     192.448     -36.314
  H     -317.375     181.989     -33.289
  H     -322.523     185.636     -34.465
  H     -319.859     185.560     -37.172
  H     -321.972     183.686     -37.537
  H     -316.131     181.756     -35.253
  H     -323.685     185.250     -36.873
  H     -316.678     182.550     -36.696
  H     -322.196     187.368     -38.489
  H     -324.471     187.929     -37.611
  H     -323.915     187.621     -35.976
  P     -325.426     185.485     -38.825
  C     -325.519     187.911     -39.740
  O     -325.903     187.009     -38.723
  O     -325.686     184.898     -37.356
  O     -326.119     184.665     -39.863
  H     -326.408     184.244     -37.391
  H     -326.285     188.684     -39.831
  H     -325.405     187.409     -40.703
  H     -324.571     188.382     -39.467
  H     -323.129     189.919     -32.764
  H     -322.751     191.298     -33.768
  H     -322.065     189.734     -34.138

 3  4  5  6  7  8  9  10  11  12  23  26  30  31 0
 6-311+G(2d,p)
 ****
 33  35  36  37  38 0
 6-311+G(2d,p)
 ****
 1  2  13  14  15  16  17  18  19  20  21  22  24  25 0
 3-21G
 ****
 27  28  29  32  34  39  40  41  42  43  44  45  46  47  48  49 0
 3-21G
 ****


