%nproc=1
%NoSave
%Mem=1900MB
#P OB98/GEN NMR

erre ene a

0 1
  C      -49.027    -107.165     211.582
  O      -48.262    -108.051     210.787
  H      -49.593    -107.750     212.311
  H      -49.733    -106.605     210.960
  H      -48.374    -106.472     212.120
  P      -47.342    -107.430     209.631
  C      -48.771    -108.702     207.895
  O      -48.237    -107.448     208.301
  C      -50.210    -108.532     207.422
  O      -51.007    -107.902     208.446
  C      -50.355    -107.664     206.169
  O      -50.067    -108.423     205.005
  C      -51.815    -107.261     206.280
  O      -52.654    -108.359     205.873
  C      -51.954    -107.015     207.792
  N      -53.941    -102.456     208.784
  C      -54.545    -103.603     208.308
  N      -55.862    -103.505     208.017
  N      -53.914    -104.733     208.117
  C      -52.591    -104.657     208.390
  C      -51.874    -103.572     208.848
  C      -52.589    -102.346     209.108
  O      -52.095    -101.310     209.547
  N      -50.536    -103.860     208.939
  C      -50.451    -105.124     208.576
  N      -51.670    -105.653     208.214
  O      -45.987    -108.048     209.457
  O      -47.252    -105.874     209.996
  H      -52.443    -108.542     204.939
  H      -46.469    -105.686     210.547
  H      -54.475    -101.608     208.893
  H      -49.535    -105.703     208.553
  H      -52.953    -107.264     208.162
  H      -52.070    -106.403     205.656
  H      -56.312    -102.612     207.873
  H      -49.736    -106.762     206.229
  H      -56.312    -104.322     207.620
  H      -50.632    -109.532     207.253
  H      -48.728    -109.374     208.760
  H      -48.166    -109.131     207.087
  P      -48.832    -108.045     204.051
  C      -50.464    -107.947     202.052
  O      -49.486    -107.258     202.814
  O      -47.960    -109.191     203.667
  O      -48.061    -106.884     204.834
  H      -47.374    -107.214     205.463
  H      -50.815    -107.313     201.265
  H      -51.284    -108.217     202.684
  H      -50.031    -108.831     201.632

 6  7  8  9  10  11  12  13  14  15  26  29  33  34 0
 6-311+G(2d,p)
 ****
 36  38  39  40  41 0
 6-311+G(2d,p)
 ****
 1  2  3  4  5  16  17  18  19  20  21  22  23  24  25 0
 3-21G
 ****
 27  28  30  31  32  35  37  42  43  44  45  46  47 0
 3-21G
 ****
 48  49 0
 3-21G
 ****


