%nproc=1
%NoSave
%Mem=1900MB
#P OB98/GEN NMR

erre ene a

0 1
  C      118.405    -492.700    1594.540
  O      119.013    -493.693    1593.711
  P      118.173    -494.855    1592.971
  C      118.696    -494.013    1590.577
  O      117.668    -494.312    1591.537
  C      118.081    -493.480    1589.267
  O      117.443    -492.207    1589.489
  C      119.087    -493.234    1588.143
  O      119.504    -494.458    1587.555
  C      118.317    -492.285    1587.255
  O      117.413    -493.040    1586.385
  C      117.501    -491.452    1588.267
  N      118.100    -490.138    1588.449
  C      117.764    -489.147    1587.508
  O      117.066    -489.431    1586.542
  N      118.251    -487.869    1587.709
  C      119.064    -487.623    1588.679
  N      119.506    -486.335    1588.796
  C      119.503    -488.633    1589.654
  C      118.991    -489.851    1589.477
  O      117.079    -495.438    1593.814
  O      119.250    -495.971    1592.585
  H      116.951    -493.694    1586.962
  H      118.822    -496.852    1592.600
  H      120.202    -488.406    1590.434
  H      119.253    -490.673    1590.147
  H      116.483    -491.329    1587.921
  H      118.969    -491.694    1586.583
  H      119.981    -492.700    1588.556
  H      117.309    -494.189    1588.932
  H      119.172    -485.660    1588.127
  H      119.239    -494.939    1590.364
  H      120.133    -486.047    1589.538
  H      119.399    -493.254    1591.006
  P      120.859    -495.186    1588.049
  C      119.486    -497.210    1588.897
  O      120.443    -496.215    1589.212
  O      121.996    -494.271    1588.380
  O      121.224    -496.169    1586.826
  H      122.189    -496.263    1586.778
  H      119.594    -498.039    1589.598
  H      119.615    -497.557    1587.862
  H      118.484    -496.766    1589.005
  H      119.158    -492.041    1594.918
  H      117.904    -493.176    1595.357
  H      117.697    -492.140    1593.965

 3  4  5  6  7  8  9  10  11  12  13  23  27  28  29  30  32 0
 6-311+G(2d,p)
 ****
 34  35 0
 6-311+G(2d,p)
 ****
 1  2  14  15  16  17  18  19  20  21  22  24  25  26 0
 3-21G
 ****
 31  33  36  37  38  39  40  41  42  43  44  45  46 0
 3-21G
 ****


