%nproc=1
%NoSave
%Mem=1900MB
#P OB98/GEN NMR

erre ene a

0 1
  C      294.855    -459.232     575.162
  O      295.566    -460.454     575.158
  H      294.308    -459.138     574.219
  H      295.550    -458.392     575.251
  H      294.138    -459.212     575.988
  P      296.420    -460.793     576.472
  C      298.227    -458.930     576.335
  O      297.920    -460.310     576.174
  C      299.741    -458.738     576.326
  O      300.333    -459.462     577.432
  C      300.425    -459.276     575.077
  O      300.295    -458.404     573.969
  C      301.858    -459.426     575.567
  O      302.570    -458.182     575.489
  C      301.671    -459.844     577.029
  N      305.011    -463.678     576.563
  C      305.134    -462.342     576.374
  N      304.197    -461.387     576.529
  C      303.039    -461.922     576.958
  C      302.767    -463.257     577.197
  C      303.818    -464.161     576.984
  N      303.688    -465.523     577.150
  N      301.448    -463.420     577.587
  C      300.941    -462.205     577.586
  N      301.863    -461.267     577.217
  O      296.521    -462.391     576.434
  O      295.833    -460.304     577.751
  H      302.638    -457.965     574.536
  H      295.865    -462.775     577.045
  H      306.112    -462.003     576.045
  H      299.916    -461.956     577.839
  H      302.372    -459.328     577.701
  H      302.400    -460.156     574.968
  H      300.032    -460.270     574.834
  H      299.963    -457.670     576.461
  H      297.826    -458.578     577.291
  H      297.761    -458.364     575.523
  H      304.462    -466.117     576.915
  H      302.773    -465.902     577.353
  P      299.309    -458.849     572.781
  C      300.805    -460.634     571.598
  O      300.228    -459.335     571.564
  O      298.685    -457.473     572.266
  O      298.254    -459.825     573.185
  H      297.756    -457.609     571.993
  H      301.384    -460.791     570.712
  H      300.028    -461.368     571.651
  H      301.437    -460.721     572.457

 6  7  8  9  10  11  12  13  14  15  25  28  32  33  34  35 0
 6-311+G(2d,p)
 ****
 36  37  40 0
 6-311+G(2d,p)
 ****
 1  2  3  4  5  16  17  18  19  20  21  22  23  24 0
 3-21G
 ****
 26  27  29  30  31  38  39 41  42  43  44  45  46  47  48 0
 3-21G
 ****


