%nproc=1
%NoSave
%Mem=1900MB
#P OB98/GEN NMR

erre ene a

0 1
  C      -64.432     -50.933    -163.547
  O      -64.019     -51.202    -164.884
  P      -62.889     -52.312    -165.128
  C      -60.323     -52.220    -164.488
  O      -61.445     -51.632    -165.109
  C      -59.040     -51.693    -165.156
  O      -58.976     -52.128    -166.532
  C      -58.947     -50.169    -165.164
  O      -58.376     -49.665    -163.970
  C      -58.102     -49.914    -166.398
  O      -56.714     -50.166    -166.113
  C      -58.658     -50.980    -167.371
  N      -59.851     -50.637    -168.173
  C      -59.773     -49.631    -169.135
  O      -58.760     -48.981    -169.375
  N      -60.919     -49.388    -169.846
  C      -62.060     -50.139    -169.822
  O      -63.036     -49.911    -170.524
  C      -62.038     -51.280    -168.899
  C      -60.965     -51.466    -168.126
  O      -63.094     -52.733    -166.655
  O      -62.973     -53.491    -164.206
  H      -56.220     -50.027    -166.941
  H      -63.372     -53.667    -166.717
  H      -60.904     -48.616    -170.495
  H      -62.902     -51.932    -168.880
  H      -60.940     -52.308    -167.438
  H      -57.881     -51.297    -168.078
  H      -58.165     -48.873    -166.709
  H      -59.936     -49.731    -165.338
  H      -58.176     -52.114    -164.627
  H      -60.360     -53.310    -164.563
  H      -60.323     -51.974    -163.421
  P      -59.182     -48.600    -163.087
  C      -59.908     -46.156    -163.386
  O      -59.260     -47.268    -163.980
  O      -58.703     -48.413    -161.687
  O      -60.695     -49.139    -163.138
  H      -60.898     -49.682    -162.343
  H      -59.752     -45.281    -164.022
  H      -59.491     -45.955    -162.395
  H      -60.981     -46.352    -163.307
  H      -65.186     -50.174    -163.553
  H      -63.592     -50.597    -162.975
  H      -64.828     -51.826    -163.110

 3  4  5  6  7  8  9  10  11  12  13  23  28  29  30  31  32 0
 6-311+G(2d,p)
 ****
 33  34 0
 6-311+G(2d,p)
 ****
 1  2  14  15  16  17  18  19  20  21  22  24  25  26  27 0
 3-21G
 ****
 35  36  37  38  39  40  41  42  43  44  45 0
 3-21G
 ****


