%nproc=1
%NoSave
%Mem=1900MB
#P OB98/GEN NMR

erre ene a

0 1
  C      205.416     784.974     370.239
  O      205.805     784.769     368.884
  P      206.404     785.900     367.926
  C      208.547     787.321     368.413
  O      207.964     786.047     368.241
  C      210.088     787.310     368.338
  O      210.622     786.435     369.383
  C      210.554     786.720     367.002
  O      210.643     787.548     365.853
  C      211.857     786.002     367.343
  O      213.008     786.807     367.117
  C      211.722     785.678     368.828
  N      213.883     781.132     369.763
  C      214.476     782.339     369.472
  N      215.841     782.340     369.390
  N      213.830     783.452     369.287
  C      212.474     783.294     369.323
  C      211.764     782.144     369.579
  C      212.514     780.943     369.828
  O      212.026     779.828     370.098
  N      210.417     782.373     369.508
  C      210.299     783.641     369.193
  N      211.532     784.256     369.076
  O      205.614     787.167     367.863
  O      206.359     785.226     366.463
  H      212.930     787.214     366.243
  H      206.203     785.949     365.825
  H      214.451     780.302     369.921
  H      209.370     784.183     369.057
  H      212.610     785.991     369.378
  H      211.985     785.113     366.697
  H      216.391     781.498     369.394
  H      209.846     785.928     366.734
  H      216.245     783.169     368.965
  H      210.503     788.299     368.531
  H      208.226     787.707     369.380
  H      208.172     788.012     367.646
  P      209.683     787.457     364.563
  C      207.254     788.251     364.418
  O      208.603     788.622     364.659
  O      208.816     786.133     364.806
  O      210.414     787.365     363.246
  H      208.398     785.836     363.985
  H      206.675     789.173     364.192
  H      206.842     787.757     365.292
  H      207.184     787.576     363.543
  H      205.050     784.056     370.648
  H      204.646     785.715     370.281
  H      206.261     785.305     370.806

 3  4  5  6  7  8  9  10  11  12  23  26  30  31 0
 6-311+G(2d,p)
 ****
 33  35  36  37  38 0
 6-311+G(2d,p)
 ****
 1  2  13  14  15  16  17  18  19  20  21  22  24  25 0
 3-21G
 ****
 27  28  29  32  34  39  40  41  42  43  44  45  46  47  48  49 0
 3-21G
 ****


