%nproc=1
%NoSave
%Mem=1900MB
#P OB98/GEN NMR

erre ene a

0 1
  C     -437.027     117.787     374.505
  O     -436.770     116.767     373.543
  P     -437.699     116.721     372.240
  C     -435.764     116.924     370.510
  O     -436.833     116.145     371.002
  C     -435.166     116.317     369.229
  O     -434.363     115.144     369.550
  C     -436.220     115.880     368.207
  O     -435.669     116.015     366.897
  C     -436.398     114.401     368.514
  O     -436.999     113.706     367.423
  C     -434.945     114.022     368.826
  N     -435.209     108.984     368.616
  C     -435.395     109.921     367.621
  N     -435.660     109.452     366.378
  N     -435.334     111.211     367.819
  C     -435.019     111.533     369.104
  C     -434.821     110.699     370.180
  C     -434.916     109.271     369.947
  O     -434.779     108.391     370.790
  N     -434.555     111.410     371.335
  C     -434.602     112.669     370.948
  N     -434.846     112.808     369.611
  O     -437.875     118.266     371.867
  O     -439.020     116.060     372.455
  H     -437.406     112.882     367.791
  H     -438.777     118.561     372.067
  H     -435.277     107.992     368.403
  H     -434.479     113.529     371.601
  H     -434.350     113.860     367.909
  H     -437.030     114.269     369.403
  H     -435.667     108.467     366.143
  H     -437.169     116.437     368.256
  H     -435.748     110.116     365.628
  H     -434.490     117.054     368.773
  H     -434.975     117.003     371.269
  H     -436.119     117.949     370.336
  P     -436.639     116.569     365.741
  C     -434.820     118.217     364.861
  O     -435.684     117.132     364.588
  O     -437.255     117.903     366.391
  O     -437.701     115.618     365.292
  H     -438.124     118.111     365.975
  H     -433.809     117.844     364.993
  H     -435.123     118.766     365.771
  H     -434.841     118.912     364.029
  H     -436.334     117.696     375.315
  H     -438.025     117.684     374.876
  H     -436.914     118.747     374.046

 3  4  5  6  7  8  9  10  11  12  23  26  30  31 0
 6-311+G(2d,p)
 ****
 33  35  36  37  38 0
 6-311+G(2d,p)
 ****
 1  2  13  14  15  16  17  18  19  20  21  22  24  25 0
 3-21G
 ****
 27  28  29  32  34  39  40  41  42  43  44  45  46  47  48  49 0
 3-21G
 ****


