%nproc=1
%NoSave
%Mem=1900MB
#P OB98/GEN NMR

erre ene a

0 1
  C      -96.797    -394.823     -21.077
  O      -98.185    -394.520     -21.301
  P      -98.598    -393.033     -21.751
  C      -98.027    -391.575     -23.849
  O      -98.285    -392.867     -23.316
  C      -98.135    -391.601     -25.375
  O      -97.210    -392.562     -25.933
  C      -99.503    -392.018     -25.902
  O     -100.450    -390.970     -25.802
  C      -99.166    -392.398     -27.341
  O      -99.120    -391.233     -28.182
  C      -97.763    -393.016     -27.189
  N      -97.778    -394.475     -27.266
  C      -97.202    -395.039     -28.402
  O      -96.753    -394.373     -29.332
  N      -97.194    -396.407     -28.451
  C      -97.752    -397.244     -27.526
  O      -97.730    -398.466     -27.635
  C      -98.416    -396.590     -26.389
  C      -98.403    -395.258     -26.317
  O      -97.437    -392.150     -21.087
  O      -99.942    -392.568     -21.298
  H      -98.567    -391.464     -28.952
  H      -97.776    -391.253     -20.900
  H      -96.754    -396.837     -29.247
  H      -98.889    -397.219     -25.647
  H      -98.889    -394.756     -25.482
  H      -97.096    -392.633     -27.968
  H      -99.905    -393.079     -27.775
  H      -99.850    -392.909     -25.367
  H      -97.864    -390.606     -25.755
  H      -97.016    -391.265     -23.567
  H      -98.743    -390.864     -23.425
  P     -101.551    -391.103     -24.638
  C     -101.354    -390.915     -22.036
  O     -100.814    -390.604     -23.302
  O     -101.647    -392.695     -24.493
  O     -102.843    -390.431     -24.971
  H     -100.791    -393.130     -24.658
  H     -101.853    -391.888     -22.037
  H     -102.072    -390.140     -21.749
  H     -100.543    -390.937     -21.302
  H      -96.698    -395.848     -20.786
  H      -96.415    -394.193     -20.301
  H      -96.245    -394.653     -21.978

 3  4  5  6  7  8  9  10  11  12  13  23  28  29  30  31  32 0
 6-311+G(2d,p)
 ****
 33  34 0
 6-311+G(2d,p)
 ****
 1  2  14  15  16  17  18  19  20  21  22  24  25  26 0
 3-21G
 ****
 27  35  36  37  38  39  40  41  42  43  44  45 0
 3-21G
 ****


