%nproc=1
%NoSave
%Mem=1900MB
#P OB98/GEN NMR

erre ene a

0 1
  C      -80.414     -95.866     189.299
  O      -79.745     -95.840     188.054
  H      -79.675     -96.012     190.091
  H      -81.125     -96.696     189.323
  H      -80.938     -94.922     189.470
  P      -80.622     -95.466     186.768
  C      -81.154     -97.996     186.308
  O      -80.649     -96.761     185.816
  C      -81.107     -99.053     185.207
  O      -82.154     -98.845     184.239
  C      -79.835     -99.023     184.378
  O      -78.708     -99.489     185.086
  C      -80.245     -99.910     183.213
  O      -80.167    -101.298     183.567
  C      -81.719     -99.480     183.006
  N      -81.888     -98.602     181.857
  C      -81.915     -99.233     180.607
  O      -81.812    -100.457     180.527
  N      -82.031     -98.457     179.481
  C      -82.135     -97.171     179.592
  N      -82.237     -96.458     178.438
  C      -82.137     -96.468     180.889
  C      -82.005     -97.237     181.968
  O      -79.665     -94.462     185.971
  O      -81.982     -94.923     187.060
  H      -80.434    -101.799     182.772
  H      -78.779     -94.822     185.802
  H      -82.236     -95.393     180.934
  H      -81.996     -96.801     182.959
  H      -82.359    -100.359     182.860
  H      -79.602     -99.768     182.342
  H      -79.663     -98.012     183.986
  H      -81.260    -100.035     185.673
  H      -82.211     -96.971     177.566
  H      -82.173     -97.878     186.688
  H      -82.290     -95.451     178.399
  H      -80.522     -98.299     187.149
  P      -77.430     -98.546     185.298
  C      -76.743     -98.845     182.836
  O      -76.352     -98.996     184.196
  O      -76.905     -98.492     186.693
  O      -77.920     -97.130     184.733
  H      -78.186     -97.136     183.796
  H      -75.950     -99.175     182.198
  H      -76.955     -97.815     182.638
  H      -77.618     -99.432     182.649

 6  7  8  9  10  11  12  13  14  15  16  26  30  31  32  33  35 0
 6-311+G(2d,p)
 ****
 37  38 0
 6-311+G(2d,p)
 ****
 1  2  3  4  5  17  18  19  20  21  22  23  24  25 0
 3-21G
 ****
 27  28  29  34  36  39  40  41  42  43  44  45  46 0
 3-21G
 ****


