%nproc=1
%NoSave
%Mem=1900MB
#P OB98/GEN NMR

erre ene a

0 1
  C      221.867    -131.262    -529.748
  O      222.511    -130.106    -530.224
  P      221.737    -129.095    -531.219
  C      221.535    -127.065    -529.649
  O      220.840    -128.141    -530.289
  C      221.346    -125.772    -530.452
  O      219.949    -125.386    -530.496
  C      222.050    -124.567    -529.864
  O      223.462    -124.583    -529.851
  C      221.381    -123.432    -530.617
  O      221.950    -123.251    -531.915
  C      219.923    -123.953    -530.727
  N      219.022    -123.275    -529.808
  C      218.572    -122.014    -530.212
  O      218.891    -121.487    -531.268
  N      217.753    -121.362    -529.329
  C      217.394    -121.813    -528.088
  O      216.688    -121.152    -527.329
  C      217.908    -123.128    -527.707
  C      218.692    -123.792    -528.565
  O      220.991    -129.757    -532.336
  O      222.895    -128.108    -531.705
  H      222.912    -123.216    -531.816
  H      223.339    -127.611    -530.992
  H      217.434    -120.452    -529.595
  H      217.627    -123.521    -526.738
  H      219.087    -124.764    -528.313
  H      219.546    -123.809    -531.747
  H      221.478    -122.470    -530.092
  H      221.749    -124.480    -528.808
  H      221.658    -125.960    -531.490
  H      222.604    -127.302    -529.598
  H      221.168    -126.947    -528.620
  P      224.339    -123.925    -528.675
  C      225.172    -126.167    -527.639
  O      224.432    -124.976    -527.469
  O      224.061    -122.499    -528.338
  O      225.829    -124.024    -529.295
  H      226.364    -123.277    -528.960
  H      225.080    -126.784    -526.745
  H      226.227    -125.937    -527.811
  H      224.767    -126.736    -528.493
  H      222.532    -131.803    -529.107
  H      221.587    -131.881    -530.575
  H      220.992    -130.982    -529.199

 3  4  5  6  7  8  9  10  11  12  13  23  28  29  30  31  32 0
 6-311+G(2d,p)
 ****
 33  34 0
 6-311+G(2d,p)
 ****
 1  2  14  15  16  17  18  19  20  21  22  24  25  26  27 0
 3-21G
 ****
 35  36  37  38  39  40  41  42  43  44  45 0
 3-21G
 ****


