%nproc=1
%NoSave
%Mem=1900MB
#P OB98/GEN NMR

erre ene a

0 1
  C       76.178    -546.585     182.158
  O       75.723    -546.682     180.815
  P       75.952    -548.084     180.056
  C       73.489    -548.692     180.629
  O       74.855    -549.086     180.670
  C       72.657    -549.729     179.874
  O       72.937    -549.662     178.463
  C       72.925    -551.172     180.276
  O       72.219    -551.540     181.448
  C       72.366    -551.910     179.075
  O       70.930    -551.989     179.164
  C       72.779    -550.995     177.921
  N       75.077    -551.825     173.420
  C       73.804    -551.488     173.732
  N       73.266    -551.296     174.954
  C       74.175    -551.525     175.918
  C       75.502    -551.912     175.754
  C       75.957    -552.051     174.428
  N       77.252    -552.373     174.110
  N       76.119    -552.055     176.972
  C       75.195    -551.747     177.862
  N       74.014    -551.410     177.273
  O       77.321    -548.610     180.681
  O       75.999    -547.991     178.569
  H       70.623    -551.158     179.556
  H       77.750    -549.241     180.061
  H       73.140    -551.343     172.895
  H       75.347    -551.750     178.935
  H       72.004    -550.938     177.145
  H       72.735    -552.942     179.000
  H       73.994    -551.361     180.371
  H       71.592    -549.482     180.020
  H       73.403    -547.731     180.117
  H       77.534    -552.274     173.152
  H       77.942    -552.340     174.849
  H       73.113    -548.578     181.649
  P       72.868    -552.697     182.361
  C       74.236    -550.984     183.770
  O       74.268    -552.088     182.874
  O       73.308    -553.802     181.285
  O       71.957    -553.246     183.406
  H       73.339    -554.673     181.700
  H       75.216    -550.907     184.247
  H       73.478    -551.123     184.534
  H       74.045    -550.067     183.209
  H       75.964    -545.608     182.537
  H       77.234    -546.757     182.190
  H       75.679    -547.318     182.757

 3  4  5  6  7  8  9  10  11  12  22  25  29  30  31  32 0
 6-311+G(2d,p)
 ****
 33  36  37 0
 6-311+G(2d,p)
 ****
 1  2  13  14  15  16  17  18  19  20  21  23  24  26 0
 3-21G
 ****
 27  28  34  35  38  39  40  41  42  43  44  45  46  47  48 0
 3-21G
 ****


