%nproc=1
%NoSave
%Mem=1900MB
#P OB98/GEN NMR

erre ene a

0 1
  C       30.155    -255.592    -149.056
  O       30.894    -254.985    -148.015
  H       30.732    -256.404    -149.503
  H       29.230    -256.003    -148.639
  H       29.898    -254.852    -149.819
  P       32.302    -254.334    -148.430
  C       33.438    -256.514    -149.238
  O       32.904    -255.251    -149.607
  C       34.659    -256.837    -150.097
  O       34.211    -257.034    -151.465
  C       35.732    -255.735    -150.102
  O       37.024    -256.289    -149.824
  C       35.724    -255.213    -151.527
  O       37.014    -254.816    -151.981
  C       35.177    -256.399    -152.314
  N       33.865    -257.949    -156.993
  C       34.103    -258.641    -155.854
  N       34.353    -258.162    -154.619
  C       34.311    -256.819    -154.612
  C       34.057    -255.980    -155.685
  C       33.848    -256.598    -156.928
  N       33.663    -255.892    -158.097
  N       34.105    -254.654    -155.291
  C       34.425    -254.694    -154.012
  N       34.574    -255.980    -153.563
  O       33.242    -254.664    -147.174
  O       32.251    -252.871    -148.709
  H       37.422    -254.292    -151.268
  H       33.546    -253.824    -146.782
  H       34.098    -259.723    -155.954
  H       34.605    -253.832    -153.383
  H       35.961    -257.134    -152.539
  H       35.052    -254.348    -151.589
  H       35.519    -254.937    -149.385
  H       35.087    -257.787    -149.758
  H       32.679    -257.292    -149.392
  H       33.635    -256.409    -158.961
  H       33.759    -254.885    -158.072
  H       33.712    -256.492    -148.178
  P       37.603    -256.036    -148.345
  C       38.996    -253.906    -148.865
  O       37.879    -254.461    -148.180
  O       39.064    -256.685    -148.409
  O       36.779    -256.655    -147.264
  H       39.160    -257.359    -147.710
  H       39.053    -252.857    -148.663
  H       38.882    -254.061    -149.918
  H       39.893    -254.383    -148.530

 6  7  8  9  10  11  12  13  14  15  25  28  32  33  34  35 0
 6-311+G(2d,p)
 ****
 36  39  40 0
 6-311+G(2d,p)
 ****
 1  2  3  4  5  16  17  18  19  20  21  22  23  24 0
 3-21G
 ****
 26  27  29  30  31  37  38  41  42  43  44  45  46  47  48 0
 3-21G
 ****


