%nproc=1
%NoSave
%Mem=1900MB
#P OB98/GEN NMR

erre ene a

0 1
  C      103.998     215.812     273.197
  O      105.120     216.600     273.544
  H      103.211     215.976     273.939
  H      104.271     214.753     273.201
  H      103.622     216.097     272.211
  P      106.327     216.642     272.493
  C      107.485     218.989     272.714
  O      106.524     218.176     272.053
  C      106.869     220.340     273.069
  O      105.916     220.212     274.143
  C      107.871     221.356     273.592
  O      108.733     221.841     272.588
  C      106.927     222.406     274.158
  O      106.392     223.236     273.118
  C      105.816     221.519     274.774
  N      105.915     221.427     276.223
  C      105.231     222.413     276.946
  O      104.587     223.280     276.354
  N      105.320     222.405     278.315
  C      106.007     221.484     278.913
  N      106.063     221.537     280.271
  C      106.721     220.410     278.192
  C      106.638     220.446     276.863
  O      105.681     215.980     271.189
  O      107.594     215.996     272.952
  H      107.155     223.683     272.702
  H      104.850     216.400     270.911
  H      107.274     219.658     278.734
  H      107.132     219.698     276.260
  H      104.823     221.916     274.525
  H      107.426     223.068     274.867
  H      108.439     220.930     274.430
  H      106.340     220.715     272.183
  H      105.579     222.298     280.731
  H      108.376     219.122     272.094
  H      106.593     220.895     280.841
  H      107.792     218.463     273.624
  P      110.323     221.689     272.736
  C      110.711     220.463     270.506
  O      110.725     220.362     271.927
  O      110.839     221.744     274.134
  O      110.891     222.849     271.787
  H      110.628     222.776     270.853
  H      110.994     219.524     270.079
  H      111.402     221.219     270.195
  H      109.727     220.723     270.177

 6  7  8  9  10  11  12  13  14  15  16  26  30  31  32  33  35 0
 6-311+G(2d,p)
 ****
 37  38 0
 6-311+G(2d,p)
 ****
 1  2  3  4  5  17  18  19  20  21  22  23  24  25 0
 3-21G
 ****
 27  28  29  34  36  39  40  41  42  43  44  45  46 0
 3-21G
 ****


