%nproc=1
%NoSave
%Mem=1900MB
#P OB98/GEN NMR

erre ene a

0 1
  C      152.963      82.148     723.533
  O      153.173      83.356     724.234
  H      151.998      81.735     723.817
  H      153.749      81.426     723.779
  H      152.954      82.333     722.445
  P      154.563      84.118     723.959
  C      155.939      83.015     725.867
  O      155.722      83.119     724.468
  C      157.432      82.805     726.155
  O      157.947      81.704     725.384
  C      158.310      84.010     725.844
  O      158.294      84.959     726.910
  C      159.676      83.349     725.664
  O      160.294      83.086     726.940
  C      159.294      82.038     724.957
  N      161.855      80.543     720.868
  C      162.047      80.220     722.201
  N      163.110      79.441     722.491
  N      161.270      80.657     723.162
  C      160.270      81.455     722.728
  C      159.974      81.830     721.431
  C      160.816      81.325     720.369
  O      160.665      81.507     719.167
  N      158.870      82.650     721.389
  C      158.526      82.796     722.656
  N      159.356      82.115     723.507
  O      154.574      85.281     725.054
  O      154.734      84.655     722.579
  H      159.682      82.578     727.492
  H      155.068      86.048     724.706
  H      162.470      80.164     720.177
  H      157.682      83.385     723.008
  H      159.948      81.210     725.261
  H      160.358      83.980     725.102
  H      163.894      79.361     721.864
  H      157.997      84.480     724.891
  H      163.265      79.224     723.465
  H      157.515      82.531     727.225
  H      155.374      82.161     726.256
  H      155.589      83.934     726.358
  P      158.835      86.429     726.602
  C      161.132      85.674     727.549
  O      160.437      86.311     726.497
  O      158.611      87.212     727.982
  O      158.162      87.125     725.456
  H      158.651      88.179     727.839
  H      162.180      85.674     727.335
  H      160.788      84.665     727.645
  H      160.954      86.200     728.464

 6  7  8  9  10  11  12  13  14  15  26  29  33  34 0
 6-311+G(2d,p)
 ****
 36  38  39  40  41 0
 6-311+G(2d,p)
 ****
 1  2  3  4  5  16  17  18  19  20  21  22  23  24  25 0
 3-21G
 ****
 27  28  30  31  32  35  37  42  43  44  45  46  47 0
 3-21G
 ****
 48  49 0
 3-21G
 ****


