%nproc=1
%NoSave
%Mem=1900MB
#P OB98/GEN NMR

erre ene a

0 1
  C     -540.243    -599.632     360.432
  O     -539.994    -598.296     360.815
  H     -540.371    -599.662     359.345
  H     -541.164    -599.982     360.902
  H     -539.412    -600.290     360.706
  P     -539.340    -598.015     362.251
  C     -541.537    -597.787     363.585
  O     -540.374    -597.125     363.096
  C     -542.653    -596.796     363.938
  O     -542.262    -595.999     365.078
  C     -542.931    -595.801     362.801
  O     -543.813    -596.269     361.800
  C     -543.532    -594.624     363.565
  O     -544.943    -594.814     363.760
  C     -542.797    -594.674     364.908
  N     -541.439    -589.901     366.148
  C     -542.699    -590.477     366.142
  N     -543.733    -589.658     366.450
  N     -542.920    -591.728     365.843
  C     -541.800    -592.399     365.465
  C     -540.508    -591.938     365.418
  C     -540.268    -590.562     365.801
  O     -539.175    -590.002     365.822
  N     -539.645    -592.913     364.986
  C     -540.421    -593.936     364.704
  N     -541.736    -593.681     365.003
  O     -538.164    -596.970     361.932
  O     -538.808    -599.226     362.958
  H     -545.263    -594.129     364.379
  H     -537.462    -597.045     362.605
  H     -541.326    -588.939     366.416
  H     -540.073    -594.890     364.307
  H     -543.481    -594.493     365.747
  H     -543.407    -593.685     363.018
  H     -543.625    -588.662     366.571
  H     -541.989    -595.470     362.351
  H     -544.669    -589.964     366.197
  H     -543.552    -597.349     364.224
  H     -541.235    -598.337     364.474
  H     -541.898    -598.516     362.853
  P     -543.234    -596.656     360.355
  C     -544.001    -594.605     358.939
  O     -544.202    -595.962     359.270
  O     -543.598    -598.210     360.240
  O     -541.785    -596.402     360.163
  H     -542.827    -598.753     360.487
  H     -544.724    -594.305     358.210
  H     -543.017    -594.477     358.539
  H     -544.110    -594.004     359.817

 6  7  8  9  10  11  12  13  14  15  26  29  33  34 0
 6-311+G(2d,p)
 ****
 36  38  39  40  41 0
 6-311+G(2d,p)
 ****
 1  2  3  4  5  16  17  18  19  20  21  22  23  24  25 0
 3-21G
 ****
 27  28  30  31  32  35  37  42  43  44  45  46  47 0
 3-21G
 ****
 48  49 0
 3-21G
 ****


