%nproc=1
%NoSave
%Mem=1900MB
#P OB98/GEN NMR

erre ene a

0 1
  C      314.074    -953.560     188.491
  O      315.418    -953.315     188.108
  H      313.960    -954.637     188.661
  H      313.388    -953.264     187.691
  H      313.834    -953.032     189.414
  P      315.852    -951.803     187.788
  C      315.372    -950.196     185.803
  O      315.202    -951.504     186.345
  C      315.340    -950.252     184.281
  O      314.166    -950.942     183.800
  C      315.297    -948.888     183.592
  O      316.523    -948.189     183.637
  C      314.925    -949.330     182.187
  O      316.077    -949.890     181.530
  C      313.864    -950.402     182.481
  N      312.495    -949.888     182.448
  C      312.020    -949.444     181.202
  O      312.737    -949.494     180.206
  N      310.744    -948.920     181.123
  C      310.023    -948.825     182.194
  N      308.775    -948.291     182.065
  C      310.495    -949.255     183.531
  C      311.728    -949.773     183.580
  O      317.312    -951.498     187.914
  O      314.924    -950.913     188.748
  H      316.322    -950.699     182.023
  H      315.164    -949.959     188.591
  H      309.860    -949.130     184.401
  H      312.130    -950.105     184.524
  H      313.946    -951.240     181.769
  H      314.566    -948.509     181.564
  H      314.479    -948.279     183.998
  H      316.218    -950.839     183.957
  H      308.483    -948.002     181.138
  H      316.326    -949.800     186.169
  H      308.171    -948.109     182.859
  H      314.559    -949.553     186.150
  P      316.467    -946.603     183.355
  C      315.847    -945.149     181.274
  O      315.829    -946.426     181.886
  O      318.009    -946.211     183.155
  O      315.793    -945.794     184.421
  H      318.369    -945.836     183.982
  H      315.387    -945.209     180.310
  H      316.859    -944.819     181.166
  H      315.309    -944.454     181.884

 6  7  8  9  10  11  12  13  14  15  16  26  30  31  32  33  35 0
 6-311+G(2d,p)
 ****
 37  38 0
 6-311+G(2d,p)
 ****
 1  2  3  4  5  17  18  19  20  21  22  23  24  25 0
 3-21G
 ****
 27  28  29  34  36  39  40  41  42  43  44  45  46 0
 3-21G
 ****


