%nproc=1
%NoSave
%Mem=1900MB
#P OB98/GEN NMR

erre ene a

0 1
  C      146.614      34.497     -64.634
  O      147.803      34.793     -63.929
  H      146.465      35.234     -65.426
  H      146.712      33.508     -65.090
  H      145.753      34.492     -63.961
  P      147.773      36.054     -62.938
  C      146.733      36.510     -60.604
  O      147.106      35.538     -61.570
  C      146.316      35.834     -59.300
  O      145.186      34.958     -59.574
  C      147.419      34.988     -58.645
  O      147.337      35.157     -57.227
  C      147.021      33.566     -58.997
  O      147.522      32.609     -58.071
  C      145.500      33.675     -59.004
  N      143.960      28.837     -58.753
  C      144.249      29.741     -57.795
  N      144.602      31.034     -57.949
  C      144.576      31.382     -59.247
  C      144.294      30.574     -60.334
  C      143.991      29.231     -60.048
  N      143.762      28.284     -61.019
  N      144.427      31.285     -61.510
  C      144.807      32.492     -61.139
  N      144.912      32.598     -59.781
  O      146.634      36.974     -63.588
  O      149.064      36.785     -62.788
  H      147.277      31.714     -58.377
  H      147.029      37.556     -64.262
  H      144.202      29.379     -56.771
  H      145.047      33.308     -61.807
  H      145.068      33.629     -57.997
  H      147.403      33.315     -59.993
  H      148.429      35.237     -58.989
  H      145.960      36.607     -58.608
  H      145.888      37.090     -60.989
  H      143.659      27.325     -60.724
  H      143.890      28.537     -61.988
  H      147.575      37.188     -60.430
  P      148.089      36.420     -56.588
  C      147.729      38.998     -56.601
  O      147.150      37.707     -56.750
  O      149.280      36.698     -57.621
  O      148.605      36.182     -55.206
  H      150.059      37.045     -57.153
  H      146.975      39.745     -56.738
  H      148.499      39.130     -57.332
  H      148.148      39.090     -55.621

 6  7  8  9  10  11  12  13  14  15  25  28  32  33  34  35 0
 6-311+G(2d,p)
 ****
 36  39  40 0
 6-311+G(2d,p)
 ****
 1  2  3  4  5  16  17  18  19  20  21  22  23  24 0
 3-21G
 ****
 26  27  29  30  31  37  38  41  42  43  44  45  46  47 0
 3-21G
 ****
 48 0
 3-21G
 ****


