%nproc=1
%NoSave
%Mem=1900MB
#P OB98/GEN NMR

erre ene a

0 1
  C       14.562     -15.211      46.707
  O       13.341     -15.710      46.207
  H       14.406     -14.870      47.733
  H       14.889     -14.362      46.099
  H       15.335     -15.982      46.707
  P       13.357     -16.593      44.873
  C       12.695     -14.620      43.349
  O       13.673     -15.602      43.652
  C       13.088     -13.812      42.106
  O       11.962     -13.013      41.671
  C       14.222     -12.840      42.439
  O       15.041     -12.562      41.307
  C       13.476     -11.576      42.836
  O       14.271     -10.399      42.720
  C       12.287     -11.626      41.878
  N        9.033      -7.777      41.143
  C       10.192      -8.083      40.459
  N       10.542      -7.240      39.462
  N       10.947      -9.113      40.739
  C       10.516      -9.824      41.807
  C        9.398      -9.605      42.580
  C        8.549      -8.486      42.234
  O        7.520      -8.156      42.817
  N        9.298     -10.528      43.590
  C       10.354     -11.299      43.435
  N       11.118     -10.921      42.358
  O       11.814     -16.954      44.637
  O       14.206     -17.827      44.922
  H       15.093     -10.550      43.223
  H       11.732     -17.772      44.116
  H        8.480      -6.982      40.876
  H       10.609     -12.141      44.067
  H       12.557     -11.194      40.905
  H       13.182     -11.666      43.885
  H       10.092      -6.348      39.328
  H       14.851     -13.205      43.251
  H       11.517      -7.278      39.154
  H       13.338     -14.486      41.280
  H       12.622     -13.956      44.217
  H       11.718     -15.088      43.210
  P       16.042     -13.714      40.816
  C       18.161     -12.775      42.043
  O       17.225     -13.825      41.892
  O       16.740     -13.079      39.526
  O       15.364     -15.006      40.510
  H       16.382     -13.483      38.715
  H       18.867     -13.034      42.804
  H       17.649     -11.878      42.322
  H       18.675     -12.619      41.117

 6  7  8  9  10  11  12  13  14  15  26  29  33  34 0
 6-311+G(2d,p)
 ****
 36  38  39  40  41 0
 6-311+G(2d,p)
 ****
 1  2  3  4  5  16  17  18  19  20  21  22  23  24  25 0
 3-21G
 ****
 27  28  30  31  32  35  37  42  43  44  45  46  47 0
 3-21G
 ****
 48  49 0
 3-21G
 ****


