%nproc=1
%NoSave
%Mem=1900MB
#P OB98/GEN NMR

erre ene a

0 1
  C      107.679     200.920    -785.900
  O      106.930     199.836    -785.391
  H      106.989     201.695    -786.238
  H      108.287     200.594    -786.748
  H      108.319     201.332    -785.117
  P      107.761     198.538    -784.942
  C      105.474     197.429    -784.360
  O      106.694     197.344    -785.076
  C      104.390     196.624    -785.071
  O      104.141     197.159    -786.394
  C      104.736     195.155    -785.294
  O      104.597     194.357    -784.134
  C      103.711     194.804    -786.358
  O      102.416     194.671    -785.748
  C      103.781     196.052    -787.258
  N      104.750     195.919    -788.352
  C      104.834     196.984    -789.251
  O      104.128     197.982    -789.113
  N      105.706     196.891    -790.310
  C      106.440     195.831    -790.457
  N      107.277     195.793    -791.524
  C      106.388     194.685    -789.522
  C      105.534     194.796    -788.512
  O      107.897     198.712    -783.358
  O      109.053     198.312    -785.655
  H      102.168     195.559    -785.415
  H      108.267     197.886    -782.956
  H      107.009     193.816    -789.693
  H      105.442     193.992    -787.787
  H      102.800     196.279    -787.690
  H      103.921     193.864    -786.865
  H      105.745     195.042    -785.725
  H      103.464     196.728    -784.495
  H      107.247     196.566    -792.177
  H      105.180     198.485    -784.305
  H      107.774     194.954    -791.803
  H      105.606     197.043    -783.347
  P      105.934     193.767    -783.475
  C      104.389     191.859    -782.598
  O      105.651     192.224    -783.145
  O      105.967     194.452    -782.030
  O      107.191     194.034    -784.255
  H      106.886     194.631    -781.748
  H      104.362     190.801    -782.437
  H      103.612     192.136    -783.279
  H      104.244     192.365    -781.666

 6  7  8  9  10  11  12  13  14  15  16  26  30  31  32  33  35 0
 6-311+G(2d,p)
 ****
 37  38 0
 6-311+G(2d,p)
 ****
 1  2  3  4  5  17  18  19  20  21  22  23  24  25 0
 3-21G
 ****
 27  28  29  34  36  39  40  41  42  43  44  45  46 0
 3-21G
 ****


