%nproc=1
%NoSave
%Mem=1900MB
#P OB98/GEN NMR

erre ene a

0 1
  C       12.282      35.610     -64.151
  O       12.750      35.785     -62.830
  H       11.190      35.628     -64.142
  H       12.615      34.646     -64.546
  H       12.644      36.419     -64.789
  P       14.338      35.731     -62.610
  C       14.309      33.138     -62.759
  O       14.845      34.355     -63.260
  C       14.214      32.118     -63.889
  O       13.536      32.703     -65.024
  C       15.562      31.651     -64.419
  O       16.167      30.686     -63.576
  C       15.160      31.083     -65.770
  O       14.685      29.733     -65.653
  C       14.023      32.035     -66.205
  N       14.459      32.978     -67.228
  C       15.059      32.417     -68.351
  O       15.224      31.206     -68.492
  N       15.502      33.300     -69.297
  C       15.440      34.660     -69.212
  O       15.922      35.398     -70.063
  C       14.782      35.197     -68.010
  C       14.337      34.346     -67.082
  O       14.477      35.483     -61.035
  O       15.080      36.946     -63.058
  H       14.719      36.316     -60.588
  H       15.406      29.226     -65.231
  H       15.950      32.913     -70.112
  H       14.710      36.274     -67.914
  H       13.867      34.719     -66.177
  H       13.181      31.461     -66.611
  H       16.000      31.064     -66.463
  H       16.226      32.509     -64.579
  H       13.620      31.264     -63.537
  H       13.308      33.318     -62.356
  H       14.953      32.770     -61.954
  P       17.725      30.840     -63.231
  C       18.357      28.644     -64.526
  O       18.525      30.040     -64.368
  O       17.849      29.908     -61.938
  O       18.160      32.252     -63.035
  H       17.275      29.124     -61.977
  H       18.972      28.300     -65.331
  H       17.331      28.431     -64.744
  H       18.641      28.146     -63.622

 6  7  8  9  10  11  12  13  14  15  16  27  31  32  33  34  35 0
 6-311+G(2d,p)
 ****
 36  37 0
 6-311+G(2d,p)
 ****
 1  2  3  4  5  17  18  19  20  21  22  23  24  25 0
 3-21G
 ****
 26  28  29  30  38  39  40  41  42  43  44  45 0
 3-21G
 ****


