%nproc=1
%NoSave
%Mem=1900MB
#P OB98/GEN NMR

erre ene a

0 1
  C     1629.347    -344.443     217.952
  O     1630.434    -345.026     217.261
  H     1628.542    -344.226     217.228
  H     1629.646    -343.508     218.420
  H     1628.956    -345.137     218.703
  P     1631.730    -345.392     218.138
  C     1632.166    -342.926     218.820
  O     1632.616    -344.061     218.091
  C     1633.209    -341.818     218.816
  O     1634.403    -342.261     219.497
  C     1633.644    -341.378     217.430
  O     1632.720    -340.433     216.893
  C     1634.983    -340.721     217.738
  O     1634.772    -339.387     218.239
  C     1635.532    -341.624     218.855
  N     1640.276    -343.560     219.383
  C     1639.719    -342.409     219.836
  N     1638.484    -341.934     219.607
  C     1637.773    -342.789     218.840
  C     1638.203    -343.985     218.279
  C     1639.525    -344.365     218.602
  N     1640.084    -345.533     218.139
  N     1637.198    -344.575     217.543
  C     1636.169    -343.774     217.687
  N     1636.482    -342.662     218.421
  O     1632.416    -346.666     217.771
  O     1631.108    -345.351     219.619
  H     1634.420    -338.865     217.473
  H     1630.489    -344.595     219.710
  H     1640.358    -341.797     220.454
  H     1635.178    -343.971     217.288
  H     1636.052    -341.032     219.620
  H     1635.622    -340.637     216.850
  H     1633.792    -342.216     216.745
  H     1632.803    -340.972     219.395
  H     1631.918    -343.225     219.853
  H     1641.092    -345.647     218.236
  H     1639.586    -346.083     217.440
  H     1631.224    -342.582     218.349
  P     1631.473    -340.877     215.966
  C     1632.911    -341.128     213.841
  O     1631.870    -340.400     214.504
  O     1630.141    -340.466     216.494
  O     1631.636    -342.473     215.890
  H     1630.785    -342.873     215.575
  H     1633.079    -340.707     212.872
  H     1632.621    -342.153     213.739
  H     1633.811    -341.068     214.417

 6  7  8  9  10  11  12  13  14  15  25  28  32  33  34  35 0
 6-311+G(2d,p)
 ****
 36  39  40 0
 6-311+G(2d,p)
 ****
 1  2  3  4  5  16  17  18  19  20  21  22  23  24 0
 3-21G
 ****
 26  27  29  30  31  37  38  41  42  43  44  45  46  47 0
 3-21G
 ****
 48 0
 3-21G
 ****


