%nproc=1
%NoSave
%Mem=1900MB
#P OB98/GEN NMR

erre ene a

0 1
  C       60.194    -138.628    -287.911
  O       60.395    -138.797    -286.493
  P       60.269    -140.269    -285.854
  C       62.595    -141.154    -286.640
  O       61.723    -140.875    -285.553
  C       63.951    -141.683    -286.148
  O       64.314    -141.038    -284.890
  C       63.988    -143.201    -285.896
  O       65.321    -143.644    -286.202
  C       63.741    -143.292    -284.399
  O       64.158    -144.529    -283.838
  C       64.546    -142.078    -283.916
  N       64.191    -141.619    -282.573
  C       64.694    -142.333    -281.488
  O       65.363    -143.354    -281.577
  N       64.368    -141.836    -280.247
  C       63.573    -140.753    -279.996
  O       63.301    -140.380    -278.861
  C       63.049    -140.059    -281.175
  C       63.372    -140.513    -282.387
  O       59.791    -141.137    -287.117
  O       59.283    -140.402    -284.736
  H       63.852    -144.537    -282.911
  H       59.056    -141.720    -286.855
  H       64.736    -142.328    -279.453
  H       62.420    -139.190    -281.022
  H       63.002    -140.009    -283.276
  H       65.610    -142.310    -283.951
  H       62.668    -143.181    -284.203
  H       63.257    -143.755    -286.493
  H       64.716    -141.395    -286.882
  H       62.762    -140.234    -287.216
  H       62.121    -141.890    -287.295
  P       65.562    -144.440    -287.583
  C       66.419    -142.469    -289.085
  O       66.710    -143.659    -288.380
  O       64.224    -144.039    -288.380
  O       65.734    -145.913    -287.427
  H       64.019    -143.091    -288.314
  H       65.737    -141.827    -288.512
  H       65.966    -142.710    -290.051
  H       67.346    -141.922    -289.257
  H       60.313    -137.596    -288.168
  H       59.207    -138.949    -288.172
  H       60.913    -139.214    -288.445

 3  4  5  6  7  8  9  10  11  12  13  23  28  29  30  31  32 0
 6-311+G(2d,p)
 ****
 33  34 0
 6-311+G(2d,p)
 ****
 1  2  14  15  16  17  18  19  20  21  22  24  25  26 0
 3-21G
 ****
 27  35  36  37  38  39  40  41  42  43  44  45 0
 3-21G
 ****


