%nproc=1
%NoSave
%Mem=1900MB
#P OB98/GEN NMR

erre ene a

0 1
  C     -467.886     653.962       4.685
  O     -468.081     654.222       6.074
  P     -466.778     654.527       6.955
  C     -466.432     652.004       7.445
  O     -465.885     653.194       6.894
  C     -465.330     651.157       8.083
  O     -464.664     650.391       7.072
  C     -464.241     651.961       8.785
  O     -464.636     652.374      10.083
  C     -463.120     650.933       8.851
  O     -463.331     650.057       9.970
  C     -463.308     650.160       7.532
  N     -458.527     649.970       5.845
  C     -459.097     649.392       6.963
  N     -458.277     648.632       7.728
  N     -460.350     649.546       7.302
  C     -461.052     650.298       6.424
  C     -460.600     650.923       5.283
  C     -459.203     650.786       4.948
  O     -458.628     651.330       4.002
  N     -461.622     651.583       4.642
  C     -462.690     651.328       5.370
  N     -462.393     650.572       6.479
  O     -467.346     654.520       8.456
  O     -466.085     655.806       6.628
  H     -463.360     650.612      10.768
  H     -466.773     655.070       9.026
  H     -457.561     649.804       5.621
  H     -463.686     651.667       5.132
  H     -463.193     649.079       7.679
  H     -462.132     651.382       8.983
  H     -457.344     648.373       7.452
  H     -463.922     652.809       8.167
  H     -458.688     648.172       8.532
  H     -465.808     650.459       8.786
  H     -466.916     651.422       6.654
  H     -467.191     652.274       8.194
  P     -464.335     653.907      10.472
  C     -461.778     653.559      10.810
  O     -462.813     654.156      10.046
  O     -464.285     653.873      12.072
  O     -465.341     654.881       9.954
  H     -464.522     654.746      12.436
  H     -462.074     652.560      11.160
  H     -461.543     654.186      11.661
  H     -460.891     653.452      10.178
  H     -468.832     653.776       4.221
  H     -467.256     653.105       4.568
  H     -467.424     654.810       4.225

 3  4  5  6  7  8  9  10  11  12  23  26  30  31  33  0
 6-311+G(2d,p)
 ****
 35  36  37  38 0
 6-311+G(2d,p)
 ****
 1  2  13  14  15  16  17  18  19  20  21  22  24  25  27  28  29 0
 3-21G
 ****
 32  34  39  40  41  42  43  44  45  46  47  48  49 0
 3-21G
 ****


