%nproc=1
%NoSave
%Mem=1900MB
#P OB98/GEN NMR

erre ene a

0 1
  C     1155.106    -327.585    -286.128
  O     1154.737    -328.886    -286.523
  H     1154.748    -326.879    -286.885
  H     1156.194    -327.514    -286.073
  H     1154.668    -327.319    -285.166
  P     1154.734    -330.054    -285.428
  C     1152.371    -330.663    -286.265
  O     1153.644    -331.147    -285.872
  C     1151.332    -331.790    -286.374
  O     1151.701    -332.705    -287.426
  C     1151.264    -332.627    -285.090
  O     1150.429    -332.099    -284.067
  C     1150.710    -333.951    -285.614
  O     1149.275    -333.918    -285.688
  C     1151.323    -334.035    -287.020
  N     1153.268    -338.638    -285.957
  C     1152.021    -338.114    -285.626
  N     1151.231    -338.903    -284.861
  N     1151.620    -336.932    -285.993
  C     1152.555    -336.220    -286.668
  C     1153.818    -336.627    -287.042
  C     1154.239    -337.964    -286.677
  O     1155.323    -338.472    -286.940
  N     1154.492    -335.631    -287.726
  C     1153.657    -334.610    -287.691
  N     1152.458    -334.924    -287.089
  O     1154.034    -329.369    -284.153
  O     1156.083    -330.597    -285.069
  H     1148.981    -334.626    -286.280
  H     1154.335    -329.805    -283.333
  H     1153.505    -339.561    -285.675
  H     1153.863    -333.629    -288.116
  H     1150.583    -334.388    -287.753
  H     1150.983    -334.784    -284.961
  H     1151.542    -339.771    -284.457
  H     1152.266    -332.803    -284.688
  H     1150.439    -338.458    -284.382
  H     1150.358    -331.364    -286.634
  H     1152.500    -330.186    -287.239
  H     1152.028    -329.893    -285.574
  P     1150.558    -332.647    -282.572
  C     1150.873    -330.143    -281.934
  O     1150.321    -331.398    -281.592
  O     1152.128    -332.950    -282.430
  O     1149.737    -333.849    -282.266
  H     1152.300    -333.894    -282.600
  H     1150.623    -329.426    -281.180
  H     1150.477    -329.824    -282.875
  H     1151.937    -330.229    -282.006

 6  7  8  9  10  11  12  13  14  15  26  29  33  34 0
 6-311+G(2d,p)
 ****
 36  38  39  40  41 0
 6-311+G(2d,p)
 ****
 1  2  3  4  5  16  17  18  19  20  21  22  23  24  25 0
 3-21G
 ****
 27  28  30  31  32  35  37  42  43  44  45  46  47 0
 3-21G
 ****
 48  49 0
 3-21G
 ****


