%nproc=1
%NoSave
%Mem=1900MB
#P OB98/GEN NMR

erre ene a

0 1
  C     -226.695    -284.807      53.855
  O     -226.315    -284.831      55.217
  H     -226.398    -283.848      53.425
  H     -227.779    -284.914      53.765
  H     -226.193    -285.611      53.308
  P     -226.688    -286.158      56.040
  C     -228.794    -287.666      56.172
  O     -228.257    -286.407      55.797
  C     -229.925    -287.483      57.176
  O     -230.820    -286.429      56.754
  C     -230.785    -288.723      57.391
  O     -230.183    -289.613      58.315
  C     -232.071    -288.105      57.924
  O     -231.967    -287.803      59.331
  C     -232.177    -286.819      57.094
  N     -236.790    -287.820      55.303
  C     -236.344    -287.700      56.604
  N     -237.258    -287.932      57.573
  N     -235.121    -287.389      56.928
  C     -234.311    -287.217      55.855
  C     -234.636    -287.295      54.520
  C     -236.005    -287.608      54.177
  O     -236.478    -287.667      53.044
  N     -233.546    -287.037      53.728
  C     -232.559    -286.846      54.582
  N     -232.971    -286.962      55.883
  O     -226.627    -285.679      57.569
  O     -225.803    -287.332      55.797
  H     -231.868    -288.630      59.829
  H     -226.357    -286.432      58.127
  H     -237.751    -288.045      55.119
  H     -231.537    -286.622      54.308
  H     -232.618    -285.994      57.665
  H     -232.920    -288.781      57.811
  H     -238.087    -288.484      57.400
  H     -230.990    -289.222      56.434
  H     -236.935    -287.866      58.532
  H     -229.474    -287.163      58.126
  H     -228.002    -288.271      56.628
  H     -229.163    -288.181      55.278
  P     -230.621    -291.156      58.258
  C     -232.859    -292.442      58.577
  O     -232.173    -291.202      58.659
  O     -229.895    -291.795      59.535
  O     -230.260    -291.862      56.994
  H     -229.867    -292.766      59.451
  H     -233.878    -292.307      58.875
  H     -232.389    -293.153      59.224
  H     -232.827    -292.801      57.570

 6  7  8  9  10  11  12  13  14  15  26  29  33  34 0
 6-311+G(2d,p)
 ****
 36  38  39  40  41 0
 6-311+G(2d,p)
 ****
 1  2  3  4  5  16  17  18  19  20  21  22  23  24  25 0
 3-21G
 ****
 27  28  30  31  32  35  37  42  43  44  45  46  47 0
 3-21G
 ****
 48  49 0
 3-21G
 ****


