%nproc=1
%NoSave
%Mem=1900MB
#P OB98/GEN NMR

erre ene a

0 1
  C      609.433      44.966     -42.809
  O      609.620      46.145     -42.053
  H      608.441      44.560     -42.589
  H      610.184      44.226     -42.522
  H      609.501      45.178     -43.882
  P      610.867      47.073     -42.439
  C      611.877      47.407     -40.080
  O      611.183      47.997     -41.161
  C      611.710      48.250     -38.811
  O      612.246      49.579     -39.062
  C      610.248      48.420     -38.360
  O      610.196      48.382     -36.940
  C      609.883      49.809     -38.858
  O      608.825      50.397     -38.094
  C      611.216      50.528     -38.728
  N      608.979      54.897     -39.892
  C      608.706      53.994     -38.881
  N      607.681      54.302     -38.053
  N      609.389      52.888     -38.685
  C      610.410      52.740     -39.568
  C      610.777      53.550     -40.613
  C      609.994      54.756     -40.827
  O      610.176      55.577     -41.725
  N      611.844      53.033     -41.294
  C      612.127      51.906     -40.660
  N      611.283      51.688     -39.597
  O      610.241      48.098     -43.496
  O      612.046      46.355     -43.006
  H      608.650      51.290     -38.474
  H      610.660      47.968     -44.369
  H      608.418      55.723     -40.000
  H      612.919      51.218     -40.930
  H      611.405      50.889     -37.701
  H      609.567      49.759     -39.904
  H      607.145      55.155     -38.114
  H      609.588      47.647     -38.772
  H      607.486      53.673     -37.284
  H      612.321      47.809     -38.016
  H      612.936      47.330     -40.327
  H      611.482      46.396     -39.901
  P      609.494      47.098     -36.268
  C      607.693      48.516     -35.063
  O      608.744      47.577     -34.921
  O      610.735      46.240     -35.728
  O      608.654      46.307     -37.217
  H      610.853      45.446     -36.277
  H      607.287      48.745     -34.100
  H      606.927      48.102     -35.684
  H      608.072      49.410     -35.512

 6  7  8  9  10  11  12  13  14  15  26  29  33  34 0
 6-311+G(2d,p)
 ****
 36  38  39  40  41 0
 6-311+G(2d,p)
 ****
 1  2  3  4  5  16  17  18  19  20  21  22  23  24  25 0
 3-21G
 ****
 27  28  30  31  32  35  37  42  43  44  45  46  47 0
 3-21G
 ****
 48  49 0
 3-21G
 ****


