%nproc=1
%NoSave
%Mem=1900MB
#P OB98/GEN NMR

erre ene a

0 1
  C      -15.254    -112.994     -61.861
  O      -16.254    -112.573     -60.952
  P      -16.320    -111.021     -60.560
  C      -15.463    -111.474     -58.150
  O      -16.489    -110.921     -58.967
  C      -14.852    -110.404     -57.240
  O      -13.921    -111.022     -56.319
  C      -14.085    -109.317     -58.003
  O      -14.227    -108.061     -57.317
  C      -12.641    -109.746     -57.867
  O      -11.748    -108.638     -58.024
  C      -12.652    -110.349     -56.463
  N       -7.710    -110.726     -55.462
  C       -8.548    -109.634     -55.349
  N       -7.966    -108.463     -54.998
  N       -9.836    -109.688     -55.545
  C      -10.277    -110.919     -55.896
  C       -9.544    -112.085     -56.027
  C       -8.117    -112.006     -55.817
  O       -7.320    -112.932     -55.929
  N      -10.351    -113.143     -56.359
  C      -11.558    -112.620     -56.476
  N      -11.557    -111.271     -56.238
  O      -17.753    -110.570     -61.118
  O      -15.232    -110.185     -61.143
  H      -12.181    -107.868     -57.600
  H      -17.642    -110.040     -61.929
  H       -6.716    -110.637     -55.308
  H      -12.452    -113.169     -56.746
  H      -12.602    -109.572     -55.689
  H      -12.393    -110.496     -58.627
  H       -6.965    -108.347     -54.894
  H      -14.388    -109.198     -59.052
  H       -8.547    -107.642     -54.951
  H      -15.657    -109.962     -56.638
  H      -14.679    -111.885     -58.792
  H      -15.878    -112.291     -57.548
  P      -15.063    -106.926     -58.096
  C      -12.975    -105.624     -58.955
  O      -14.115    -105.632     -58.119
  O      -16.213    -106.539     -57.050
  O      -15.608    -107.365     -59.411
  H      -16.989    -106.178     -57.523
  H      -13.089    -104.835     -59.705
  H      -12.827    -106.584     -59.468
  H      -12.092    -105.407     -58.349
  H      -15.339    -114.049     -62.021
  H      -14.288    -112.771     -61.457
  H      -15.379    -112.481     -62.791

 3  4  5  6  7  8  9  10  11  12  23  26  30  31 0
 6-311+G(2d,p)
 ****
 33  35  36  37  38 0
 6-311+G(2d,p)
 ****
 1  2  13  14  15  16  17  18  19  20  21  22  24  25 0
 3-21G
 ****
 27  28  29  32  34  39  40  41  42  43  44  45  46  47  48  49 0
 3-21G
 ****


