%nproc=1
%NoSave
%Mem=1900MB
#P OB98/GEN NMR

erre ene a

0 1
  C     -396.795     331.468     -25.049
  O     -396.558     330.179     -25.637
  P     -396.728     328.797     -24.837
  C     -399.291     328.562     -24.598
  O     -398.119     328.131     -25.277
  C     -399.881     327.418     -23.757
  O     -401.010     327.898     -22.982
  C     -400.446     326.251     -24.552
  O     -399.436     325.444     -25.119
  C     -401.292     325.548     -23.494
  O     -400.494     324.664     -22.694
  C     -401.792     326.730     -22.635
  N     -403.215     326.988     -22.789
  C     -404.078     326.230     -21.998
  O     -403.639     325.340     -21.276
  N     -405.429     326.499     -22.061
  C     -405.874     327.366     -22.910
  N     -407.220     327.593     -22.919
  C     -405.008     328.080     -23.865
  C     -403.703     327.852     -23.750
  O     -396.568     328.929     -23.357
  O     -395.621     327.815     -25.451
  H     -395.372     327.148     -24.785
  H     -399.742     325.192     -22.361
  H     -405.434     328.770     -24.591
  H     -402.990     328.352     -24.397
  H     -401.579     326.550     -21.574
  H     -402.100     324.952     -23.930
  H     -401.100     326.640     -25.344
  H     -399.104     327.067     -23.060
  H     -407.783     327.096     -22.245
  H     -400.037     328.870     -25.340
  H     -407.663     328.268     -23.524
  H     -399.049     329.424     -23.967
  P     -399.675     324.913     -26.613
  C     -398.243     326.338     -28.246
  O     -398.334     325.177     -27.444
  O     -400.720     325.965     -27.224
  O     -400.202     323.519     -26.696
  H     -401.365     325.500     -27.788
  H     -397.194     326.623     -28.338
  H     -398.805     327.174     -27.808
  H     -398.642     326.126     -29.247
  H     -396.616     332.231     -25.778
  H     -396.136     331.607     -24.218
  H     -397.809     331.526     -24.714

 3  4  5  6  7  8  9  10  11  12  13  24  27  28  29  30  32 0
 6-311+G(2d,p)
 ****
 34  35 0
 6-311+G(2d,p)
 ****
 1  2  14  15  16  17  18  19  20  21  22  23  25  26 0
 3-21G
 ****
 31  33  36  37  38  39  40  41  42  43  44  45  46 0
 3-21G
 ****


