%nproc=1
%NoSave
%Mem=1900MB
#P OB98/GEN NMR

erre ene a

0 1
  C     -191.899    -327.845    -142.120
  O     -191.874    -327.525    -143.510
  P     -192.226    -328.679    -144.570
  C     -194.755    -328.148    -145.153
  O     -193.793    -328.979    -144.538
  C     -195.355    -328.874    -146.365
  O     -195.932    -330.134    -145.957
  C     -196.456    -328.078    -147.065
  O     -195.938    -327.186    -148.028
  C     -197.304    -329.185    -147.658
  O     -196.690    -329.704    -148.859
  C     -197.267    -330.245    -146.529
  N     -198.258    -330.134    -145.435
  C     -199.564    -330.579    -145.636
  O     -199.978    -331.064    -146.687
  N     -200.410    -330.457    -144.562
  C     -200.059    -330.108    -143.285
  O     -200.851    -330.073    -142.357
  C     -198.642    -329.794    -143.099
  C     -197.821    -329.806    -144.158
  O     -191.574    -329.990    -143.935
  O     -191.719    -328.415    -145.960
  H     -196.571    -328.948    -149.463
  H     -190.857    -330.324    -144.505
  H     -201.381    -330.705    -144.714
  H     -198.310    -329.557    -142.097
  H     -196.769    -329.576    -144.018
  H     -197.364    -331.255    -146.945
  H     -198.289    -328.813    -147.962
  H     -197.066    -327.552    -146.322
  H     -194.542    -329.089    -147.079
  H     -194.308    -327.200    -145.473
  H     -195.538    -327.896    -144.433
  P     -195.836    -325.620    -147.684
  C     -193.390    -325.521    -148.460
  O     -194.283    -325.344    -147.382
  O     -196.799    -325.106    -146.674
  O     -196.036    -324.914    -149.119
  H     -196.974    -324.639    -149.243
  H     -192.401    -325.146    -148.168
  H     -193.734    -324.953    -149.340
  H     -193.310    -326.577    -148.712
  H     -191.644    -326.977    -141.549
  H     -191.192    -328.623    -141.920
  H     -192.880    -328.175    -141.848

 3  4  5  6  7  8  9  10  11  12  13  23  28  29  30  31  32 0
 6-311+G(2d,p)
 ****
 33  34 0
 6-311+G(2d,p)
 ****
 1  2  14  15  16  17  18  19  20  21  22  24  25  26  27 0
 3-21G
 ****
 35  36  37  38  39  40  41  42  43  44  45 0
 3-21G
 ****


