%nproc=1
%NoSave
%Mem=1900MB
#P OB98/GEN NMR

erre ene a

0 1
  C       56.362    -430.149    -749.777
  O       56.544    -429.078    -750.680
  H       57.179    -430.862    -749.910
  H       55.414    -430.655    -749.980
  H       56.375    -429.783    -748.749
  P       55.455    -427.903    -750.631
  C       52.855    -427.898    -750.699
  O       54.057    -428.559    -751.068
  C       51.721    -428.912    -750.597
  O       52.086    -429.960    -749.668
  C       50.418    -428.331    -750.061
  O       49.701    -427.615    -751.048
  C       49.704    -429.590    -749.591
  O       49.033    -430.246    -750.675
  C       50.859    -430.456    -749.075
  N       48.481    -431.724    -744.743
  C       48.179    -431.953    -746.039
  N       48.874    -431.592    -747.140
  C       50.002    -430.953    -746.793
  C       50.447    -430.651    -745.515
  C       49.629    -431.070    -744.450
  N       49.927    -430.814    -743.133
  N       51.637    -429.950    -745.566
  C       51.908    -429.837    -746.850
  N       50.955    -430.429    -747.630
  O       55.851    -426.987    -751.885
  O       55.422    -427.122    -749.362
  H       48.462    -430.927    -750.266
  H       56.362    -426.212    -751.575
  H       47.247    -432.488    -746.218
  H       52.778    -429.338    -747.263
  H       50.757    -431.505    -749.377
  H       48.959    -429.355    -748.836
  H       50.621    -427.694    -749.189
  H       51.568    -429.371    -751.584
  H       52.601    -427.153    -751.460
  H       53.006    -427.391    -749.736
  H       49.259    -431.084    -742.429
  H       50.722    -430.230    -742.911
  P       48.787    -426.390    -750.563
  C       46.984    -426.186    -748.693
  O       47.609    -427.006    -749.673
  O       48.047    -425.908    -751.898
  O       49.537    -425.274    -749.912
  H       47.933    -424.937    -751.889
  H       46.224    -426.747    -748.191
  H       46.544    -425.335    -749.169
  H       47.714    -425.860    -747.982

 6  7  8  9  10  11  12  13  14  15  25  28  32  33  34  35 0
 6-311+G(2d,p)
 ****
 36  37  40 0
 6-311+G(2d,p)
 ****
 1  2  3  4  5  16  17  18  19  20  21  22  23  24 0
 3-21G
 ****
 26  27  29  30  31  38  39 41  42  43  44  45  46  47  48 0
 3-21G
 ****


