%nproc=1
%NoSave
%Mem=1900MB
#P OB98/GEN NMR

erre ene a

0 1
  C       16.308    -894.140    -452.505
  O       15.831    -893.450    -451.365
  H       17.322    -894.500    -452.297
  H       16.344    -893.470    -453.370
  H       15.670    -895.000    -452.730
  P       14.346    -892.860    -451.460
  C       13.317    -894.830    -450.097
  O       13.359    -894.120    -451.331
  C       11.921    -895.430    -449.871
  O       10.944    -894.350    -449.873
  C       11.486    -896.430    -450.964
  O       10.590    -897.380    -450.361
  C       10.706    -895.520    -451.917
  O        9.948    -896.280    -452.827
  C        9.964    -894.660    -450.903
  N        6.243    -892.680    -453.789
  C        6.465    -893.930    -453.344
  N        7.469    -894.390    -452.576
  C        8.301    -893.380    -452.223
  C        8.181    -892.040    -452.573
  C        7.098    -891.700    -453.402
  N        6.873    -890.420    -453.846
  N        9.218    -891.310    -452.032
  C        9.935    -892.180    -451.353
  N        9.421    -893.450    -451.460
  O       14.216    -892.440    -453.006
  O       14.044    -891.730    -450.539
  H        9.440    -895.680    -453.425
  H       14.418    -891.500    -453.103
  H        5.746    -894.690    -453.670
  H       10.828    -891.950    -450.794
  H        9.149    -895.220    -450.418
  H       11.405    -894.910    -452.515
  H       12.324    -896.960    -451.441
  H       11.877    -895.880    -448.880
  H       13.561    -894.150    -449.287
  H       14.066    -895.640    -450.132
  H        6.079    -890.260    -454.457
  H        7.512    -889.680    -453.599
  P       11.186    -898.700    -449.669
  C        9.740    -898.310    -447.528
  O       11.023    -898.550    -448.082
  O       12.766    -898.480    -449.858
  O       10.750    -900.000    -450.257
  H       13.206    -899.360    -449.877
  H        9.819    -898.238    -446.463
  H        9.085    -899.116    -447.783
  H        9.348    -897.394    -447.919

 6  7  8  9  10  11  12  13  14  15  25  28  32  33  34  35 0
 6-311+G(2d,p)
 ****
 36  37  40 0
 6-311+G(2d,p)
 ****
 1  2  3  4  5  16  17  18  19  20  21  22  23  24 0
 3-21G
 ****
 26  27  29  30  31  38  39 41  42  43  44  45  46  47  48 0
 3-21G
 ****


