%nproc=1
%NoSave
%Mem=1900MB
#P OB98/GEN NMR

erre ene a

0 1
  C      -77.531     100.424     129.943
  O      -78.784     100.291     130.612
  P      -79.103      98.916     131.371
  C      -78.476      99.537     133.797
  O      -78.122      98.793     132.637
  C      -78.933      98.594     134.925
  O      -77.795      97.810     135.372
  C      -79.474      99.295     136.176
  O      -80.865      99.602     136.233
  C      -79.218      98.237     137.247
  O      -80.290      97.274     137.244
  C      -77.926      97.564     136.790
  N      -73.861      96.207     139.589
  C      -74.855      95.483     139.026
  N      -75.900      95.922     138.296
  C      -75.857      97.256     138.155
  C      -74.907      98.124     138.669
  C      -73.870      97.552     139.423
  N      -72.866      98.287     140.006
  N      -75.199      99.428     138.325
  C      -76.318      99.346     137.628
  N      -76.747      98.057     137.487
  O      -79.198      97.700     130.510
  O      -80.515      99.226     132.070
  H      -81.032      97.683     137.728
  H      -81.065      98.419     132.043
  H      -74.804      94.408     139.185
  H      -76.848     100.194     137.214
  H      -77.948      96.479     136.931
  H      -79.182      98.660     138.254
  H      -78.888     100.195     136.399
  H      -79.689      97.900     134.530
  H      -79.282     100.233     133.552
  H      -72.183      97.803     140.568
  H      -72.886      99.296     139.941
  H      -77.611     100.137     134.081
  P      -81.380     101.104     136.452
  C      -82.205     101.312     133.979
  O      -81.358     101.785     135.001
  O      -80.659     101.872     137.507
  O      -82.941     100.898     136.729
  H      -83.448     100.588     135.959
  H      -82.199     102.030     133.154
  H      -83.232     101.201     134.341
  H      -81.840     100.349     133.609
  H      -77.470     101.391     129.489
  H      -77.448      99.670     129.189
  H      -76.736     100.311     130.650

 3  4  5  6  7  8  9  10  11  12  22  25  29  30  31  32 0
 6-311+G(2d,p)
 ****
 33  36  37 0
 6-311+G(2d,p)
 ****
 1  2  13  14  15  16  17  18  19  20  21  23  24  26 0
 3-21G
 ****
 27  28  34  35  38  39  40  41  42  43  44  45  46  47  48 0
 3-21G
 ****


