%nproc=1
%NoSave
%Mem=1900MB
#P OB98/GEN NMR

erre ene a

0 1
  C        5.165    -315.739    -111.852
  O        3.773    -315.996    -111.859
  H        5.363    -314.868    -112.480
  H        5.701    -316.598    -112.262
  H        5.510    -315.533    -110.837
  P        3.251    -317.189    -110.921
  C        2.824    -317.299    -108.365
  O        3.629    -316.777    -109.412
  C        3.085    -316.549    -107.058
  O        4.474    -316.756    -106.665
  C        2.852    -315.031    -107.146
  O        2.333    -314.588    -105.885
  C        4.264    -314.479    -107.294
  O        4.361    -313.111    -106.909
  C        5.029    -315.450    -106.394
  N        9.459    -314.215    -104.348
  C        8.183    -314.182    -103.815
  N        8.067    -313.750    -102.540
  N        7.112    -314.538    -104.476
  C        7.379    -314.978    -105.730
  C        8.594    -315.054    -106.375
  C        9.766    -314.628    -105.639
  O       10.921    -314.616    -106.064
  N        8.443    -315.527    -107.657
  C        7.143    -315.736    -107.782
  N        6.455    -315.418    -106.642
  O        4.274    -318.373    -111.259
  O        1.831    -317.595    -111.134
  H        4.246    -313.064    -105.938
  H        3.907    -318.945    -111.961
  H       10.246    -313.915    -103.798
  H        6.650    -316.108    -108.673
  H        4.886    -315.231    -105.328
  H        4.596    -314.567    -108.337
  H        8.849    -313.507    -101.955
  H        2.182    -314.719    -107.953
  H        7.143    -313.763    -102.117
  H        2.467    -316.993    -106.272
  H        3.066    -318.360    -108.224
  H        1.770    -317.208    -108.643
  P        0.747    -314.410    -105.745
  C       -0.938    -316.357    -105.362
  O        0.183    -315.633    -104.872
  O        0.219    -314.754    -107.220
  O        0.317    -313.046    -105.307
  H       -0.618    -314.282    -107.389
  H       -1.190    -317.134    -104.671
  H       -0.697    -316.788    -106.311
  H       -1.770    -315.694    -105.472

 6  7  8  9  10  11  12  13  14  15  26  29  33  34 0
 6-311+G(2d,p)
 ****
 36  38  39  40  41 0
 6-311+G(2d,p)
 ****
 1  2  3  4  5  16  17  18  19  20  21  22  23  24  25 0
 3-21G
 ****
 27  28  30  31  32  35  37  42  43  44  45  46  47 0
 3-21G
 ****
 48  49 0
 3-21G
 ****


