%nproc=1
%NoSave
%Mem=1900MB
#P OB98/GEN NMR

erre ene a

0 1
  C     -290.598     145.412    -324.895
  O     -290.549     145.464    -326.308
  H     -290.099     144.497    -324.563
  H     -291.637     145.388    -324.560
  H     -290.085     146.274    -324.463
  P     -291.071     146.819    -326.998
  C     -292.361     146.153    -329.186
  O     -291.137     146.502    -328.567
  C     -292.116     145.299    -330.433
  O     -291.160     145.984    -331.285
  C     -291.553     143.912    -330.126
  O     -292.098     142.983    -331.066
  C     -290.065     144.071    -330.378
  O     -289.430     142.824    -330.658
  C     -290.064     145.080    -331.538
  N     -288.799     145.793    -331.654
  C     -288.052     145.569    -332.822
  O     -288.469     144.793    -333.681
  N     -286.842     146.194    -332.967
  C     -286.378     146.930    -332.008
  N     -285.157     147.502    -332.200
  C     -287.104     147.157    -330.734
  C     -288.292     146.571    -330.638
  O     -289.794     147.770    -326.854
  O     -292.325     147.369    -326.405
  H     -289.743     142.505    -331.531
  H     -288.957     147.332    -327.079
  H     -286.669     147.772    -329.961
  H     -288.902     146.692    -329.747
  H     -290.261     144.569    -332.491
  H     -289.576     144.504    -329.496
  H     -291.781     143.578    -329.110
  H     -293.053     145.229    -330.995
  H     -284.689     147.301    -333.075
  H     -292.918     147.057    -329.468
  H     -284.674     148.045    -331.498
  H     -292.964     145.603    -328.456
  P     -293.546     142.351    -330.808
  C     -293.723     139.809    -331.279
  O     -293.784     141.131    -331.824
  O     -294.671     143.330    -330.718
  O     -293.355     141.595    -329.401
  H     -294.162     141.743    -328.871
  H     -293.898     139.094    -332.056
  H     -294.470     139.701    -330.521
  H     -292.756     139.643    -330.853

 6  7  8  9  10  11  12  13  14  15  16  26  30  31  32  33  35 0
 6-311+G(2d,p)
 ****
 37  38 0
 6-311+G(2d,p)
 ****
 1  2  3  4  5  17  18  19  20  21  22  23  24  25 0
 3-21G
 ****
 27  28  29  34  36  39  40  41  42  43  44  45  46 0
 3-21G
 ****


