%nproc=1
%NoSave
%Mem=1900MB
#P OB98/GEN NMR

erre ene a

0 1
  C      103.597      42.528    -302.968
  O      102.194      42.344    -302.985
  H      103.829      43.483    -303.449
  H      104.096      41.727    -303.518
  H      103.965      42.562    -301.937
  P      101.590      40.983    -302.393
  C       99.388      40.683    -301.073
  O      100.003      41.204    -302.250
  C       97.888      41.011    -301.074
  O       97.754      42.451    -301.083
  C       97.163      40.449    -302.307
  O       96.016      39.660    -301.974
  C       96.942      41.682    -303.178
  O       95.839      41.595    -304.055
  C       96.854      42.818    -302.148
  N       97.200      44.132    -302.689
  C       97.129      45.220    -301.820
  O       96.822      45.157    -300.628
  N       97.443      46.438    -302.371
  C       97.801      46.668    -303.665
  O       98.078      47.782    -304.101
  C       97.838      45.484    -304.541
  C       97.538      44.289    -304.020
  O      102.262      40.452    -301.171
  O      101.695      39.952    -303.616
  H       95.646      42.501    -304.383
  H      102.453      39.353    -303.474
  H       97.407      47.230    -301.749
  H       98.110      45.630    -305.577
  H       97.554      43.392    -304.638
  H       95.844      42.881    -301.736
  H       97.837      41.827    -303.795
  H       97.803      39.740    -302.848
  H       97.446      40.641    -300.139
  H       99.879      41.137    -300.207
  H       99.530      39.596    -301.035
  P       96.062      38.114    -301.574
  C       94.406      36.521    -300.301
  O       94.593      37.680    -301.105
  O       97.200      37.706    -300.701
  O       96.238      37.370    -302.995
  H       96.774      36.565    -302.824
  H       93.364      36.396    -300.092
  H       94.943      36.634    -299.382
  H       94.770      35.662    -300.824

 6  7  8  9  10  11  12  13  14  15  16  26  31  32  33  34  35 0
 6-311+G(2d,p)
 ****
 36  37 0
 6-311+G(2d,p)
 ****
 1  2  3  4  5  17  18  19  20  21  22  23  24  25 0
 3-21G
 ****
 27  28  29  30  38  39  40  41  42  43  44  45 0
 3-21G
 ****


