%nproc=1
%NoSave
%Mem=1900MB
#P OB98/GEN NMR

erre ene a

0 1
  C      -46.687     276.896     -86.626
  O      -46.248     276.755     -85.287
  H      -47.362     276.069     -86.864
  H      -45.831     276.857     -87.312
  H      -47.224     277.840     -86.748
  P      -45.210     277.856     -84.750
  C      -45.005     279.160     -82.519
  O      -45.628     278.086     -83.217
  C      -45.897     279.642     -81.374
  O      -47.220     279.931     -81.862
  C      -46.067     278.633     -80.238
  O      -44.973     278.703     -79.340
  C      -47.352     279.135     -79.599
  O      -47.052     280.244     -78.725
  C      -48.171     279.627     -80.809
  N      -52.737     277.408     -80.015
  C      -51.961     278.179     -79.211
  N      -50.735     278.685     -79.471
  C      -50.319     278.343     -80.700
  C      -51.004     277.559     -81.623
  C      -52.273     277.083     -81.245
  N      -53.061     276.301     -82.064
  N      -50.269     277.411     -82.785
  C      -49.184     278.139     -82.584
  N      -49.150     278.690     -81.326
  O      -45.076     279.081     -85.589
  O      -43.875     276.976     -84.617
  H      -47.859     280.426     -78.206
  H      -44.082     276.097     -84.252
  H      -52.378     278.409     -78.239
  H      -48.406     278.316     -83.320
  H      -48.713     280.556     -80.579
  H      -47.844     278.377     -78.987
  H      -46.229     277.617     -80.622
  H      -45.475     280.585     -80.994
  H      -44.803     279.991     -83.207
  H      -53.856     275.853     -81.638
  H      -52.654     275.960     -82.919
  H      -44.051     278.791     -82.129
  P      -45.064     278.058     -77.870
  C      -43.465     276.669     -76.407
  O      -43.685     277.258     -77.687
  O      -46.307     277.276     -77.616
  O      -44.891     279.302     -76.881
  H      -45.196     279.055     -75.984
  H      -42.521     276.166     -76.403
  H      -44.244     275.966     -76.199
  H      -43.465     277.433     -75.658

 6  7  8  9  10  11  12  13  14  15  25  28  32  33  34  35 0
 6-311+G(2d,p)
 ****
 36  39  40 0
 6-311+G(2d,p)
 ****
 1  2  3  4  5  16  17  18  19  20  21  22  23  24 0
 3-21G
 ****
 26  27  29  30  31  37  38  41  42  43  44  45  46  47 0
 3-21G
 ****
 48 0
 3-21G
 ****


