%nproc=1
%NoSave
%Mem=1900MB
#P OB98/GEN NMR

erre ene a

0 1
  C      320.099      54.944     655.478
  O      319.606      55.756     656.528
  H      319.909      53.894     655.710
  H      319.573      55.201     654.555
  H      321.171      55.107     655.333
  P      320.433      55.769     657.902
  C      321.177      58.245     658.158
  O      320.246      57.239     658.529
  C      320.466      59.574     657.890
  O      319.681      59.435     656.674
  C      319.515      60.010     659.016
  O      319.607      61.431     659.157
  C      318.135      59.662     658.462
  O      317.099      60.462     659.023
  C      318.351      59.891     656.964
  N      313.818      60.354     654.692
  C      314.693      61.267     655.154
  N      315.911      61.063     655.701
  C      316.221      59.752     655.691
  C      315.431      58.704     655.242
  C      314.169      59.043     654.741
  N      313.241      58.103     654.333
  N      316.087      57.497     655.448
  C      317.230      57.817     656.023
  N      317.355      59.168     656.191
  O      321.950      55.771     657.390
  O      320.154      54.635     658.832
  H      317.087      60.330     659.990
  H      322.251      54.855     657.257
  H      314.368      62.302     655.086
  H      317.979      57.115     656.367
  H      318.280      60.956     656.687
  H      317.915      58.614     658.672
  H      319.707      59.529     659.979
  H      321.220      60.343     657.696
  H      321.698      57.927     657.243
  H      312.324      58.435     654.092
  H      313.444      57.129     654.461
  H      321.919      58.366     658.958
  P      319.971      62.007     660.612
  C      322.273      60.777     660.569
  O      321.569      61.995     660.780
  O      319.487      60.846     661.592
  O      319.314      63.316     660.924
  H      319.169      61.228     662.438
  H      323.320      60.940     660.719
  H      322.105      60.436     659.569
  H      321.924      60.039     661.261

 6  7  8  9  10  11  12  13  14  15  25  28  32  33  34  35 0
 6-311+G(2d,p)
 ****
 36  39  40 0
 6-311+G(2d,p)
 ****
 1  2  3  4  5  16  17  18  19  20  21  22  23  24 0
 3-21G
 ****
 26  27  29  30  31  37  38  41  42  43  44  45  46  47 0
 3-21G
 ****
 48 0
 3-21G
 ****


