%nproc=1
%NoSave
%Mem=1900MB
#P OB98/GEN NMR

erre ene a

0 1
  C      -33.970    -518.945     -63.687
  O      -34.918    -519.927     -64.058
  P      -34.785    -521.419     -63.494
  C      -35.925    -523.614     -64.195
  O      -36.101    -522.225     -63.931
  C      -37.273    -524.335     -64.167
  O      -37.843    -524.271     -62.841
  C      -38.319    -523.731     -65.093
  O      -38.074    -524.094     -66.438
  C      -39.600    -524.303     -64.499
  O      -39.822    -525.643     -64.968
  C      -39.280    -524.306     -62.996
  N      -43.377    -522.750     -60.387
  C      -43.137    -523.870     -61.103
  N      -42.031    -524.194     -61.805
  C      -41.122    -523.205     -61.733
  C      -41.241    -521.990     -61.074
  C      -42.429    -521.785     -60.352
  N      -42.659    -520.674     -59.566
  N      -40.104    -521.225     -61.269
  C      -39.326    -521.960     -62.036
  N      -39.872    -523.186     -62.288
  O      -34.434    -521.525     -62.045
  O      -33.643    -522.069     -64.403
  H      -40.041    -525.584     -65.921
  H      -32.896    -522.344     -63.837
  H      -43.937    -524.604     -61.104
  H      -38.360    -521.657     -62.417
  H      -39.632    -525.222     -62.506
  H      -40.486    -523.719     -64.764
  H      -38.328    -522.640     -64.985
  H      -37.100    -525.392     -64.411
  H      -35.262    -524.029     -63.432
  H      -43.478    -520.693     -58.979
  H      -41.860    -520.103     -59.289
  H      -35.452    -523.737     -65.177
  P      -38.725    -523.244     -67.627
  C      -38.312    -523.099     -70.153
  O      -37.742    -523.374     -68.890
  O      -39.130    -521.847     -67.277
  O      -39.988    -524.118     -68.070
  H      -40.698    -523.530     -68.386
  H      -38.901    -523.961     -70.485
  H      -37.503    -522.925     -70.870
  H      -38.948    -522.211     -70.115
  H      -34.217    -518.016     -64.156
  H      -32.995    -519.254     -64.000
  H      -33.981    -518.822     -62.624

 3  4  5  6  7  8  9  10  11  12  22  25  29  30  31  32 0
 6-311+G(2d,p)
 ****
 33  36  37 0
 6-311+G(2d,p)
 ****
 1  2  13  14  15  16  17  18  19  20  21  23  24  26 0
 3-21G
 ****
 27  28  34  35  38  39  40  41  42  43  44  45  46  47  48 0
 3-21G
 ****


