%nproc=1
%NoSave
%Mem=1900MB
#P OB98/GEN NMR

erre ene a

0 1
  C     -163.904      93.224    -405.453
  O     -165.261      92.844    -405.594
  P     -165.872      92.267    -406.952
  C     -168.005      91.274    -405.854
  O     -167.471      92.194    -406.795
  C     -169.375      91.715    -405.292
  O     -169.190      92.823    -404.389
  C     -170.260      92.235    -406.438
  O     -170.999      91.329    -407.237
  C     -171.079      93.369    -405.816
  O     -172.391      92.938    -405.425
  C     -170.259      93.756    -404.582
  N     -171.148      98.747    -404.171
  C     -171.917      97.681    -403.731
  N     -173.164      97.996    -403.294
  N     -171.510      96.436    -403.736
  C     -170.282      96.281    -404.290
  C     -169.420      97.250    -404.741
  C     -169.867      98.624    -404.690
  O     -169.251      99.582    -405.149
  N     -168.282      96.712    -405.309
  C     -168.476      95.404    -405.227
  N     -169.691      95.097    -404.647
  O     -165.156      91.106    -407.573
  O     -165.685      93.525    -407.948
  H     -172.803      93.669    -404.930
  H     -165.497      93.173    -408.842
  H     -171.542      99.676    -404.214
  H     -167.793      94.663    -405.597
  H     -170.881      93.722    -403.675
  H     -171.217      94.187    -406.535
  H     -173.558      98.915    -403.412
  H     -169.593      92.734    -407.151
  H     -173.809      97.231    -403.127
  H     -169.835      90.920    -404.710
  H     -167.280      91.178    -405.044
  H     -168.106      90.294    -406.314
  P     -170.548      90.708    -408.634
  C     -170.921      88.180    -408.556
  O     -171.460      89.435    -408.939
  O     -169.111      90.065    -408.327
  O     -170.438      91.688    -409.762
  H     -168.602      89.972    -409.167
  H     -171.462      87.379    -409.064
  H     -171.047      88.052    -407.476
  H     -169.859      88.114    -408.816
  H     -163.734      93.578    -404.458
  H     -163.677      94.002    -406.152
  H     -163.275      92.379    -405.643

 3  4  5  6  7  8  9  10  11  12  23  26  30  31 0
 6-311+G(2d,p)
 ****
 33  35  36  37  38 0
 6-311+G(2d,p)
 ****
 1  2  13  14  15  16  17  18  19  20  21  22  24  25 0
 3-21G
 ****
 27  28  29  32  34  39  40  41  42  43  44  45  46  47  48  49 0
 3-21G
 ****


