%nproc=1
%NoSave
%Mem=1900MB
#P OB98/GEN NMR

erre ene a

0 1
  C      -93.896     337.806      31.737
  O      -94.968     338.261      30.926
  P      -96.242     337.326      30.637
  C      -94.845     335.669      29.229
  O      -95.917     336.602      29.244
  C      -95.082     334.627      28.138
  O      -96.361     333.995      28.342
  C      -95.119     335.190      26.724
  O      -93.811     335.482      26.256
  C      -95.846     334.073      25.986
  O      -94.942     332.998      25.688
  C      -96.874     333.614      27.043
  N      -98.205     334.164      26.819
  C      -98.777     333.925      25.568
  O      -98.183     333.270      24.711
  N     -100.040     334.405      25.318
  C     -100.665     335.085      26.229
  N     -101.939     335.477      25.953
  C     -100.076     335.410      27.542
  C      -98.857     334.919      27.765
  O      -97.557     338.027      30.684
  O      -96.110     336.131      31.686
  H      -95.456     332.321      25.206
  H      -96.540     336.318      32.556
  H     -100.631     335.991      28.262
  H      -98.365     335.096      28.713
  H      -96.942     332.518      27.053
  H      -96.305     334.397      25.046
  H      -95.722     336.106      26.693
  H      -94.303     333.859      28.225
  H     -102.362     335.083      25.118
  H      -94.807     335.166      30.202
  H     -102.580     335.747      26.688
  H      -93.905     336.201      29.070
  P      -93.274     336.980      26.443
  C      -94.268     337.609      24.132
  O      -93.119     337.581      24.959
  O      -91.769     336.772      26.946
  O      -94.078     337.811      27.387
  H      -91.715     336.904      27.912
  H      -94.057     338.250      23.271
  H      -95.125     338.021      24.671
  H      -94.497     336.604      23.773
  H      -93.151     338.571      31.806
  H      -93.466     336.928      31.301
  H      -94.262     337.575      32.716

 3  4  5  6  7  8  9  10  11  12  13  23  27  28  29  30  32 0
 6-311+G(2d,p)
 ****
 34  35 0
 6-311+G(2d,p)
 ****
 1  2  14  15  16  17  18  19  20  21  22  24  25  26 0
 3-21G
 ****
 31  33  36  37  38  39  40  41  42  43  44  45  46 0
 3-21G
 ****


