%nproc=1
%NoSave
%Mem=1900MB
#P OB98/GEN NMR

erre ene a

0 1
  C      450.261    -375.834      67.985
  O      449.723    -376.859      68.804
  P      450.521    -377.406      70.078
  C      448.311    -377.865      71.417
  O      449.546    -378.338      70.924
  C      447.568    -379.029      72.093
  O      447.331    -380.087      71.141
  C      448.369    -379.608      73.255
  O      447.966    -379.019      74.481
  C      448.055    -381.091      73.164
  O      446.791    -381.381      73.779
  C      447.968    -381.297      71.630
  N      449.227    -381.492      70.881
  C      449.184    -381.644      69.498
  O      448.149    -381.601      68.832
  N      450.390    -381.885      68.892
  C      451.608    -381.932      69.517
  O      452.629    -382.380      69.010
  C      451.614    -381.494      70.915
  C      450.440    -381.318      71.528
  O      450.669    -376.096      70.989
  O      451.843    -378.036      69.785
  H      446.939    -381.425      74.744
  H      451.553    -375.696      70.877
  H      450.354    -382.136      67.904
  H      452.562    -381.378      71.416
  H      450.417    -381.028      72.578
  H      447.314    -382.144      71.389
  H      448.792    -381.676      73.700
  H      449.439    -379.466      73.083
  H      446.590    -378.669      72.442
  H      447.713    -377.455      70.601
  H      448.481    -377.060      72.140
  P      449.043    -378.245      75.382
  C      447.317    -376.990      76.806
  O      448.322    -377.992      76.789
  O      449.658    -377.043      74.750
  O      450.134    -379.378      75.696
  H      450.886    -379.289      75.073
  H      446.784    -377.046      77.759
  H      446.607    -377.144      75.989
  H      447.784    -376.007      76.706
  H      449.576    -375.614      67.193
  H      451.193    -376.160      67.571
  H      450.420    -374.954      68.573

 3  4  5  6  7  8  9  10  11  12  13  23  28  29  30  31  32 0
 6-311+G(2d,p)
 ****
 33  34 0
 6-311+G(2d,p)
 ****
 1  2  14  15  16  17  18  19  20  21  22  24  25  26  27 0
 3-21G
 ****
 35  36  37  38  39  40  41  42  43  44  45 0
 3-21G
 ****


