%nproc=1
%NoSave
%Mem=1900MB
#P OB98/GEN NMR

erre ene a

0 1
  C      571.285     -50.393       3.177
  O      570.897     -51.650       3.731
  P      570.900     -52.977       2.830
  C      571.819     -54.603       4.575
  O      570.689     -54.259       3.776
  C      571.934     -53.769       5.862
  O      570.675     -53.744       6.580
  C      573.000     -54.249       6.845
  O      573.509     -53.069       7.480
  C      572.192     -55.084       7.823
  O      572.862     -55.288       9.053
  C      570.897     -54.261       7.899
  N      569.765     -55.057       8.376
  C      568.670     -54.363       8.882
  O      568.704     -53.134       8.975
  N      567.578     -55.070       9.316
  C      567.621     -56.368       9.333
  N      566.521     -57.020       9.805
  C      568.795     -57.147       8.889
  C      569.816     -56.429       8.417
  O      572.046     -53.087       1.883
  O      569.514     -52.893       2.018
  H      572.258     -55.763       9.666
  H      569.620     -53.334       1.153
  H      568.801     -58.226       8.946
  H      570.721     -56.905       8.055
  H      571.026     -53.407       8.575
  H      571.990     -56.069       7.385
  H      573.809     -54.814       6.374
  H      572.147     -52.733       5.556
  H      565.751     -56.451      10.131
  H      572.724     -54.469       3.978
  H      566.501     -58.015       9.965
  H      571.753     -55.670       4.832
  P      575.077     -52.741       7.537
  C      575.278     -50.351       8.407
  O      575.293     -51.723       8.748
  O      575.674     -52.309       6.243
  O      575.757     -54.098       8.068
  H      576.712     -54.071       7.870
  H      575.226     -49.753       9.329
  H      574.427     -50.109       7.778
  H      576.202     -50.093       7.879
  H      571.217     -49.635       3.930
  H      570.636     -50.146       2.363
  H      572.293     -50.455       2.823

 3  4  5  6  7  8  9  10  11  12  13  23  27  28  29  30  32 0
 6-311+G(2d,p)
 ****
 34  35 0
 6-311+G(2d,p)
 ****
 1  2  14  15  16  17  18  19  20  21  22  24  25  26 0
 3-21G
 ****
 31  33  36  37  38  39  40  41  42  43  44  45  46 0
 3-21G
 ****


