%nproc=1
%NoSave
%Mem=1900MB
#P OB98/GEN NMR

erre ene a

0 1
  C      187.223    -293.969     195.408
  O      186.881    -292.900     194.515
  P      186.997    -291.379     195.035
  C      184.721    -291.522     196.330
  O      185.517    -290.844     195.374
  C      183.508    -290.673     196.720
  O      183.931    -289.483     197.432
  C      182.702    -290.154     195.535
  O      181.871    -291.165     194.976
  C      181.914    -289.019     196.179
  O      180.742    -289.520     196.854
  C      182.932    -288.468     197.200
  N      183.541    -287.216     196.756
  C      182.831    -286.047     197.042
  O      181.720    -286.043     197.571
  N      183.433    -284.873     196.653
  C      184.612    -284.761     195.970
  O      185.086    -283.683     195.638
  C      185.278    -286.041     195.629
  C      184.716    -287.175     196.036
  O      187.328    -290.592     193.671
  O      188.039    -291.122     196.064
  H      180.043    -289.601     196.189
  H      187.836    -289.784     193.882
  H      182.948    -284.020     196.876
  H      186.198    -285.988     195.073
  H      185.194    -288.126     195.790
  H      182.441    -288.293     198.168
  H      181.569    -288.278     195.449
  H      183.378    -289.739     194.776
  H      182.870    -291.267     197.389
  H      185.323    -291.717     197.226
  H      184.399    -292.483     195.908
  P      182.492    -292.003     193.753
  C      181.167    -290.668     191.927
  O      181.404    -291.906     192.587
  O      182.363    -293.501     194.316
  O      183.881    -291.595     193.398
  H      181.572    -293.613     194.880
  H      182.078    -290.076     191.858
  H      180.398    -290.116     192.477
  H      180.799    -290.880     190.919
  H      187.091    -294.906     194.909
  H      186.589    -293.931     196.269
  H      188.244    -293.867     195.712

 3  4  5  6  7  8  9  10  11  12  13  23  28  29  30  31  32 0
 6-311+G(2d,p)
 ****
 33  34 0
 6-311+G(2d,p)
 ****
 1  2  14  15  16  17  18  19  20  21  22  24  25  26 0
 3-21G
 ****
 27  35  36  37  38  39  40  41  42  43  44  45 0
 3-21G
 ****


