%nproc=1
%NoSave
%Mem=1900MB
#P OB98/GEN NMR

erre ene a

0 1
  C      171.476      21.006     237.367
  O      172.843      21.257     237.083
  P      173.603      22.520     237.721
  C      174.681      23.079     235.442
  O      173.838      23.526     236.494
  C      174.099      23.510     234.095
  O      172.782      22.945     233.936
  C      173.927      25.015     233.935
  O      175.170      25.646     233.675
  C      172.911      25.069     232.797
  O      173.562      24.863     231.535
  C      172.008      23.861     233.122
  N      170.769      24.240     233.793
  C      170.138      25.399     233.330
  O      170.612      26.049     232.398
  N      168.960      25.785     233.912
  C      168.459      25.086     234.889
  N      167.251      25.477     235.383
  C      169.117      23.893     235.444
  C      170.252      23.526     234.851
  O      174.832      22.188     238.498
  O      172.484      23.271     238.576
  H      172.873      24.576     230.906
  H      172.408      22.946     239.507
  H      168.670      23.354     236.266
  H      170.789      22.646     235.186
  H      171.759      23.314     232.203
  H      172.366      26.016     232.743
  H      173.487      25.446     234.840
  H      174.745      23.110     233.297
  H      166.757      26.193     234.860
  H      174.734      21.985     235.474
  H      166.673      24.849     235.922
  H      175.687      23.489     235.583
  P      175.613      26.841     234.648
  C      175.033      28.458     232.703
  O      174.893      28.159     234.082
  O      177.160      27.048     234.294
  O      175.396      26.565     236.100
  H      177.721      26.625     234.972
  H      174.308      29.228     232.437
  H      174.842      27.566     232.094
  H      176.037      28.837     232.504
  H      171.160      20.124     236.849
  H      170.886      21.839     237.046
  H      171.351      20.865     238.420

 3  4  5  6  7  8  9  10  11  12  13  23  27  28  29  30  32 0
 6-311+G(2d,p)
 ****
 34  35 0
 6-311+G(2d,p)
 ****
 1  2  14  15  16  17  18  19  20  21  22  24  25  26 0
 3-21G
 ****
 31  33  36  37  38  39  40  41  42  43  44  45  46 0
 3-21G
 ****


