%nproc=1
%NoSave
%Mem=1900MB
#P OB98/GEN NMR

erre ene a

0 1
  C     -192.594    -408.657    -164.455
  O     -193.212    -408.671    -165.725
  H     -192.777    -409.600    -163.936
  H     -191.516    -408.533    -164.589
  H     -192.973    -407.824    -163.859
  P     -194.802    -408.884    -165.752
  C     -195.700    -406.611    -166.619
  O     -195.472    -407.446    -165.491
  C     -194.705    -405.454    -166.619
  O     -193.368    -406.001    -166.740
  C     -194.909    -404.434    -167.754
  O     -195.114    -403.126    -167.215
  C     -193.588    -404.441    -168.509
  O     -193.168    -403.140    -168.919
  C     -192.614    -405.059    -167.514
  N     -187.639    -406.118    -167.224
  C     -188.541    -405.800    -166.271
  N     -189.873    -405.635    -166.397
  C     -190.261    -405.859    -167.665
  C     -189.461    -406.215    -168.740
  C     -188.085    -406.327    -168.486
  N     -187.158    -406.598    -169.469
  N     -190.219    -406.350    -169.888
  C     -191.446    -406.038    -169.522
  N     -191.515    -405.717    -168.193
  O     -195.089    -409.684    -164.394
  O     -195.322    -409.616    -166.944
  H     -193.891    -402.772    -169.461
  H     -195.666    -410.448    -164.580
  H     -188.139    -405.651    -165.273
  H     -192.305    -405.986    -170.180
  H     -192.195    -404.313    -166.827
  H     -193.694    -405.067    -169.404
  H     -195.741    -404.699    -168.415
  H     -194.762    -404.951    -165.645
  H     -196.717    -406.205    -166.575
  H     -186.184    -406.543    -169.221
  H     -187.471    -406.644    -170.426
  H     -195.601    -407.209    -167.531
  P     -196.335    -402.277    -167.828
  C     -197.293    -401.095    -165.716
  O     -197.444    -402.133    -166.677
  O     -197.006    -403.307    -168.855
  O     -195.919    -401.012    -168.495
  H     -197.458    -402.820    -169.569
  H     -198.106    -401.131    -165.022
  H     -197.289    -400.147    -166.212
  H     -196.370    -401.226    -165.191

 6  7  8  9  10  11  12  13  14  15  25  28  32  33  34  35 0
 6-311+G(2d,p)
 ****
 36  39  40 0
 6-311+G(2d,p)
 ****
 1  2  3  4  5  16  17  18  19  20  21  22  23  24 0
 3-21G
 ****
 26  27  29  30  31  37  38  41  42  43  44  45  46  47  48 0
 3-21G
 ****


