%nproc=1
%NoSave
%Mem=1900MB
#P OB98/GEN NMR

erre ene a

0 1
  C     -189.334     330.101     -98.842
  O     -188.822     328.858     -98.390
  P     -187.290     328.444     -98.634
  C     -186.656     329.294     -96.277
  O     -186.434     329.395     -97.670
  C     -185.420     329.750     -95.501
  O     -185.734     329.762     -94.085
  C     -184.187     328.857     -95.697
  O     -183.036     329.709     -95.666
  C     -184.221     327.960     -94.476
  O     -182.955     327.396     -94.173
  C     -184.757     328.934     -93.420
  N     -185.344     328.247     -92.274
  C     -184.473     327.708     -91.325
  O     -183.253     327.787     -91.468
  N     -185.008     327.084     -90.226
  C     -186.290     326.933     -90.125
  N     -186.773     326.361     -88.989
  C     -187.239     327.394     -91.157
  C     -186.705     328.055     -92.179
  O     -186.860     328.451    -100.061
  O     -187.145     327.026     -97.914
  H     -183.088     326.665     -93.542
  H     -187.418     326.270     -98.492
  H     -188.300     327.223     -91.041
  H     -187.323     328.451     -92.970
  H     -183.958     329.604     -93.082
  H     -184.925     327.137     -94.646
  H     -184.204     328.311     -96.646
  H     -185.192     330.784     -95.793
  H     -186.110     326.219     -88.235
  H     -186.856     328.245     -96.032
  H     -187.732     326.507     -88.697
  H     -187.536     329.885     -95.997
  P     -181.605     329.068     -96.016
  C     -181.155     330.657     -98.016
  O     -181.310     329.327     -97.569
  O     -181.942     327.497     -96.000
  O     -180.496     329.359     -95.060
  H     -181.127     327.000     -95.795
  H     -180.954     330.644     -99.090
  H     -180.311     331.137     -97.512
  H     -182.069     331.231     -97.840
  H     -190.368     330.177     -98.579
  H     -189.231     330.164     -99.905
  H     -188.789     330.899     -98.383

 3  4  5  6  7  8  9  10  11  12  13  23  27  28  29  30  32 0
 6-311+G(2d,p)
 ****
 34  35 0
 6-311+G(2d,p)
 ****
 1  2  14  15  16  17  18  19  20  21  22  24  25  26 0
 3-21G
 ****
 31  33  36  37  38  39  40  41  42  43  44  45  46 0
 3-21G
 ****


