%nproc=1
%NoSave
%Mem=1900MB
#P OB98/GEN NMR

erre ene a

0 1
  C      140.200      40.047      86.896
  O      139.673      38.833      87.405
  P      138.207      38.790      88.057
  C      135.854      39.465      87.272
  O      137.254      39.655      87.098
  C      135.107      40.788      87.120
  O      135.368      41.606      88.287
  C      135.535      41.590      85.896
  O      134.391      42.264      85.361
  C      136.487      42.637      86.446
  O      136.521      43.803      85.604
  C      135.911      42.863      87.845
  N      137.738      46.807      90.580
  C      136.685      46.709      89.742
  N      136.272      45.637      89.030
  C      137.044      44.570      89.293
  C      138.149      44.515      90.127
  C      138.496      45.708      90.790
  N      139.566      45.802      91.654
  N      138.707      43.252      90.122
  C      137.937      42.554      89.316
  N      136.912      43.302      88.799
  O      138.148      39.168      89.497
  O      137.703      37.295      87.814
  H      136.939      44.520      86.123
  H      137.199      36.975      88.586
  H      136.092      47.610      89.624
  H      138.083      41.515      89.064
  H      135.098      43.601      87.834
  H      137.502      42.226      86.490
  H      136.002      40.968      85.124
  H      134.033      40.582      87.095
  H      135.684      39.068      88.276
  H      139.666      46.658      92.176
  H      140.023      44.947      91.944
  H      135.495      38.733      86.542
  P      134.451      42.610      83.788
  C      134.561      41.037      81.720
  O      134.855      41.232      83.083
  O      135.315      43.799      83.512
  O      132.900      42.816      83.457
  H      132.330      42.327      84.088
  H      134.873      40.030      81.434
  H      135.109      41.758      81.106
  H      133.486      41.138      81.539
  H      141.181      39.874      86.506
  H      140.251      40.771      87.682
  H      139.565      40.412      86.116

 3  4  5  6  7  8  9  10  11  12  22  25  29  30  31  32 0
 6-311+G(2d,p)
 ****
 33  36  37 0
 6-311+G(2d,p)
 ****
 1  2  13  14  15  16  17  18  19  20  21  23  24  26 0
 3-21G
 ****
 27  28  34  35  38  39  40  41  42  43  44  45  46  47  48 0
 3-21G
 ****


