%nproc=1
%NoSave
%Mem=1900MB
#P OB98/GEN NMR

erre ene a

0 1
  C       94.402     236.687     -90.450
  O       94.120     236.331     -91.789
  P       92.663     236.585     -92.403
  C       90.272     235.793     -91.899
  O       91.660     235.502     -91.778
  C       89.453     234.883     -90.988
  O       89.918     234.971     -89.621
  C       87.975     235.235     -90.925
  O       87.292     234.872     -92.110
  C       87.547     234.475     -89.676
  O       87.324     233.088     -89.973
  C       88.791     234.637     -88.775
  N       88.595     235.631     -87.732
  C       87.760     235.257     -86.674
  O       87.173     234.176     -86.696
  N       87.606     236.127     -85.624
  C       88.133     237.310     -85.683
  N       87.997     238.104     -84.588
  C       88.886     237.799     -86.856
  C       89.095     236.909     -87.824
  O       92.610     236.703     -93.889
  O       92.184     237.949     -91.711
  H       91.864     238.558     -92.404
  H       87.227     232.633     -89.113
  H       89.247     238.816     -86.884
  H       89.657     237.174     -88.714
  H       89.046     233.679     -88.306
  H       86.622     234.868     -89.245
  H       87.860     236.311     -90.752
  H       89.588     233.848     -91.330
  H       87.491     237.728     -83.796
  H       89.972     235.638     -92.940
  H       88.622     238.885     -84.400
  H       90.101     236.846     -91.647
  P       85.880     235.585     -92.379
  C       83.675     235.705     -91.027
  O       84.818     234.946     -91.366
  O       85.441     235.006     -93.807
  O       85.929     237.078     -92.391
  H       84.982     235.699     -94.316
  H       82.910     235.030     -90.635
  H       83.271     236.231     -91.896
  H       83.937     236.429     -90.250
  H       95.419     236.443     -90.223
  H       93.751     236.149     -89.793
  H       94.250     237.738     -90.321

 3  4  5  6  7  8  9  10  11  12  13  24  27  28  29  30  32 0
 6-311+G(2d,p)
 ****
 34  35 0
 6-311+G(2d,p)
 ****
 1  2  14  15  16  17  18  19  20  21  22  23  25  26 0
 3-21G
 ****
 31  33  36  37  38  39  40  41  42  43  44  45  46 0
 3-21G
 ****


