%nproc=1
%NoSave
%Mem=1900MB
#P OB98/GEN NMR

erre ene a

0 1
  C      106.656     276.671    1064.536
  O      105.253     276.530    1064.477
  H      106.902     277.342    1065.363
  H      107.035     277.102    1063.606
  H      107.125     275.699    1064.719
  P      104.672     275.604    1063.297
  C      102.565     274.974    1064.670
  O      103.077     275.632    1063.518
  C      101.288     275.659    1065.157
  O      101.611     276.856    1065.893
  C      100.331     276.088    1064.046
  O       99.527     274.995    1063.635
  C       99.514     277.157    1064.746
  O       98.489     276.535    1065.544
  C      100.557     277.835    1065.658
  N       99.754     282.785    1064.499
  C       98.910     281.789    1064.843
  N       99.178     280.483    1065.078
  C      100.498     280.251    1064.954
  C      101.486     281.155    1064.601
  C      101.070     282.481    1064.388
  N      101.949     283.492    1064.026
  N      102.722     280.548    1064.561
  C      102.483     279.295    1064.930
  N      101.152     279.057    1065.141
  O      105.294     274.256    1063.169
  O      104.857     276.573    1062.034
  H       98.070     275.857    1064.983
  H      104.625     277.496    1062.269
  H       97.860     282.079    1064.927
  H      103.256     278.532    1065.087
  H      100.125     278.082    1066.638
  H       99.007     277.830    1064.044
  H      100.881     276.540    1063.192
  H      100.776     274.974    1065.868
  H      103.315     274.978    1065.476
  H      101.543     284.349    1063.705
  H      102.897     283.232    1063.818
  H      102.355     273.935    1064.406
  P       98.613     275.079    1062.322
  C       98.722     272.514    1062.047
  O       97.877     273.646    1062.239
  O       99.332     275.511    1061.089
  O       97.425     276.069    1062.728
  H       96.962     276.392    1061.935
  H       98.126     271.626    1062.008
  H       99.414     272.443    1062.860
  H       99.261     272.623    1061.129

 6  7  8  9  10  11  12  13  14  15  25  28  32  33  34  35 0
 6-311+G(2d,p)
 ****
 36  39  40 0
 6-311+G(2d,p)
 ****
 1  2  3  4  5  16  17  18  19  20  21  22  23  24 0
 3-21G
 ****
 26  27  29  30  31  37  38  41  42  43  44  45  46  47 0
 3-21G
 ****
 48 0
 3-21G
 ****


