%nproc=1
%NoSave
%Mem=1900MB
#P OB98/GEN NMR

erre ene a

0 1
  C       12.747     -27.460     -90.386
  O       12.577     -28.508     -89.447
  P       13.406     -28.528     -88.081
  C       12.899     -29.184     -85.589
  O       12.433     -29.001     -86.908
  C       11.750     -29.721     -84.726
  O       10.907     -28.635     -84.289
  C       10.882     -30.710     -85.500
  O       11.304     -32.042     -85.257
  C        9.491     -30.411     -84.975
  O        9.275     -31.073     -83.715
  C        9.558     -28.878     -84.770
  N        9.326     -28.010     -85.939
  C        8.031     -27.829     -86.416
  O        7.038     -28.331     -85.901
  N        7.916     -27.055     -87.544
  C        8.943     -26.428     -88.189
  O        8.865     -25.949     -89.314
  C       10.229     -26.434     -87.486
  C       10.366     -27.229     -86.426
  O       13.629     -26.975     -87.771
  O       14.694     -29.282     -88.121
  H        9.277     -32.031     -83.891
  H       14.519     -26.692     -88.054
  H        6.998     -27.034     -87.976
  H       11.036     -25.835     -87.886
  H       11.322     -27.280     -85.910
  H        8.863     -28.557     -83.986
  H        8.725     -30.786     -85.650
  H       10.908     -30.480     -86.573
  H       12.171     -30.200     -83.834
  H       13.268     -28.235     -85.187
  H       13.738     -29.888     -85.582
  P       10.670     -33.240     -86.108
  C       11.577     -35.420     -87.105
  O       11.848     -34.317     -86.263
  O        9.995     -32.841     -87.379
  O        9.647     -33.919     -85.079
  H        8.740     -33.589     -85.246
  H       12.503     -35.974     -87.267
  H       11.190     -35.080     -88.070
  H       10.849     -36.080     -86.625
  H       12.108     -27.628     -91.227
  H       13.766     -27.435     -90.712
  H       12.496     -26.526     -89.928

 3  4  5  6  7  8  9  10  11  12  13  23  28  29  30  31  32 0
 6-311+G(2d,p)
 ****
 33  34 0
 6-311+G(2d,p)
 ****
 1  2  14  15  16  17  18  19  20  21  22  24  25  26  27 0
 3-21G
 ****
 35  36  37  38  39  40  41  42  43  44  45 0
 3-21G
 ****


