%nproc=1
%NoSave
%Mem=1900MB
#P OB98/GEN NMR

erre ene a

0 1
  C       27.448     -58.593     225.116
  O       26.431     -59.395     224.546
  H       27.538     -58.840     226.177
  H       27.183     -57.536     225.022
  H       28.407     -58.782     224.626
  P       26.302     -59.351     222.950
  C       25.560     -56.849     223.206
  O       25.350     -58.108     222.581
  C       24.868     -55.747     222.410
  O       24.888     -54.501     223.136
  C       25.546     -55.407     221.094
  O       25.358     -56.403     220.113
  C       24.864     -54.088     220.758
  O       23.608     -54.294     220.100
  C       24.654     -53.461     222.157
  N       25.507     -52.305     222.363
  C       24.840     -51.123     222.714
  O       23.616     -51.121     222.847
  N       25.574     -49.976     222.865
  C       26.854     -49.997     222.657
  N       27.517     -48.817     222.793
  C       27.593     -51.220     222.285
  C       26.865     -52.329     222.155
  O       25.379     -60.620     222.644
  O       27.600     -59.349     222.217
  H       23.177     -53.416     220.051
  H       24.580     -60.667     223.195
  H       28.664     -51.188     222.137
  H       27.327     -53.271     221.883
  H       23.611     -53.143     222.283
  H       25.476     -53.477     220.089
  H       26.613     -55.208     221.259
  H       23.822     -56.043     222.256
  H       26.964     -47.994     222.995
  H       26.631     -56.638     223.296
  H       28.497     -48.697     222.581
  H       25.148     -56.907     224.218
  P       26.590     -56.989     219.275
  C       25.916     -55.383     217.378
  O       26.266     -56.718     217.724
  O       26.962     -58.400     219.587
  O       27.758     -55.931     219.560
  H       27.560     -55.019     219.285
  H       25.724     -55.326     216.327
  H       26.722     -54.726     217.630
  H       25.038     -55.093     217.917

 6  7  8  9  10  11  12  13  14  15  16  26  30  31  32  33  35 0
 6-311+G(2d,p)
 ****
 37  38 0
 6-311+G(2d,p)
 ****
 1  2  3  4  5  17  18  19  20  21  22  23  24  25 0
 3-21G
 ****
 27  28  29  34  36  39  40  41  42  43  44  45  46 0
 3-21G
 ****


