%nproc=1
%NoSave
%Mem=1900MB
#P OB98/GEN NMR

erre ene a

0 1
  C       24.105     314.706    -417.278
  O       25.510     314.766    -417.451
  H       23.635     315.265    -418.098
  H       23.824     315.180    -416.331
  H       23.750     313.673    -417.302
  P       26.442     313.896    -416.463
  C       27.602     313.176    -418.662
  O       27.760     313.525    -417.289
  C       28.946     312.765    -419.263
  O       29.514     311.654    -418.513
  C       28.848     312.284    -420.703
  O       28.704     313.367    -421.591
  C       30.164     311.522    -420.825
  O       31.258     312.426    -421.074
  C       30.289     310.879    -419.439
  N       29.868     309.466    -419.414
  C       30.847     308.528    -419.736
  O       32.007     308.833    -420.033
  N       30.438     307.220    -419.708
  C       29.156     306.770    -419.511
  O       28.828     305.595    -419.598
  C       28.159     307.819    -419.224
  C       28.555     309.099    -419.189
  O       25.772     312.744    -415.782
  O       26.968     314.978    -415.409
  H       31.201     312.666    -422.031
  H       26.499     314.858    -414.566
  H       31.128     306.524    -419.942
  H       27.146     307.511    -419.057
  H       27.837     309.877    -418.956
  H       31.333     310.922    -419.089
  H       30.146     310.805    -421.652
  H       28.025     311.579    -420.808
  H       29.627     313.628    -419.176
  H       27.205     314.058    -419.199
  H       26.865     312.359    -418.736
  P       27.831     313.186    -422.937
  C       27.982     315.758    -422.865
  O       27.776     314.623    -423.681
  O       26.509     312.524    -422.739
  O       28.781     312.316    -423.890
  H       28.327     311.476    -424.106
  H       27.923     316.643    -423.464
  H       28.948     315.699    -422.409
  H       27.230     315.791    -422.104

 6  7  8  9  10  11  12  13  14  15  16  26  31  32  33  34  35 0
 6-311+G(2d,p)
 ****
 36  37 0
 6-311+G(2d,p)
 ****
 1  2  3  4  5  17  18  19  20  21  22  23  24  25 0
 3-21G
 ****
 27  28  29  30  38  39  40  41  42  43  44  45 0
 3-21G
 ****


