%nproc=1
%NoSave
%Mem=1900MB
#P OB98/GEN NMR

erre ene a

0 1
  C      -19.798      71.668     -75.889
  O      -19.889      71.790     -74.479
  P      -18.593      72.318     -73.692
  C      -18.292      69.895     -72.792
  O      -17.685      71.029     -73.400
  C      -17.777      68.612     -73.436
  O      -18.338      68.440     -74.754
  C      -16.267      68.577     -73.637
  O      -15.573      68.220     -72.454
  C      -16.136      67.481     -74.681
  O      -16.218      66.188     -74.051
  C      -17.370      67.726     -75.561
  N      -16.711      67.508     -80.573
  C      -17.208      66.555     -79.705
  N      -17.515      65.356     -80.243
  N      -17.389      66.760     -78.428
  C      -17.028      68.006     -78.028
  C      -16.527      69.035     -78.794
  C      -16.322      68.790     -80.206
  O      -15.837      69.574     -81.014
  N      -16.290      70.151     -78.038
  C      -16.646      69.803     -76.816
  N      -17.059      68.497     -76.752
  O      -19.168      72.696     -72.246
  O      -17.895      73.467     -74.339
  H      -16.298      65.531     -74.771
  H      -18.537      73.276     -71.777
  H      -16.585      67.299     -81.549
  H      -16.606      70.452     -75.952
  H      -17.837      66.789     -75.878
  H      -15.183      67.514     -75.216
  H      -17.340      65.114     -81.207
  H      -15.899      69.524     -74.055
  H      -17.821      64.618     -79.618
  H      -18.103      67.766     -72.817
  H      -19.375      69.958     -72.916
  H      -18.068      69.897     -71.720
  P      -14.582      69.321     -71.835
  C      -12.662      68.388     -73.315
  O      -13.425      69.514     -72.927
  O      -13.862      68.533     -70.645
  O      -15.258      70.566     -71.364
  H      -13.565      69.153     -69.955
  H      -12.119      68.632     -74.235
  H      -13.303      67.524     -73.509
  H      -11.938      68.142     -72.534
  H      -20.728      71.308     -76.277
  H      -19.018      70.979     -76.138
  H      -19.579      72.624     -76.316

 3  4  5  6  7  8  9  10  11  12  23  26  30  31 0
 6-311+G(2d,p)
 ****
 33  35  36  37  38 0
 6-311+G(2d,p)
 ****
 1  2  13  14  15  16  17  18  19  20  21  22  24  25 0
 3-21G
 ****
 27  28  29  32  34  39  40  41  42  43  44  45  46  47  48  49 0
 3-21G
 ****


