%nproc=1
%NoSave
%Mem=1900MB
#P OB98/GEN NMR

erre ene a

0 1
  C     -156.400      19.156     160.227
  O     -156.552      17.738     160.195
  P     -157.915      16.967     159.883
  C     -158.371      15.769     162.183
  O     -158.724      16.784     161.252
  C     -159.452      15.606     163.264
  O     -159.636      16.890     163.936
  C     -160.812      15.206     162.676
  O     -161.496      14.213     163.443
  C     -161.514      16.543     162.493
  O     -162.925      16.433     162.383
  C     -160.990      17.341     163.688
  N     -163.497      21.727     164.455
  C     -163.900      20.432     164.717
  N     -165.139      20.275     165.236
  N     -163.162      19.379     164.474
  C     -161.982      19.670     163.884
  C     -161.474      20.914     163.560
  C     -162.277      22.075     163.876
  O     -161.963      23.245     163.684
  N     -160.237      20.810     162.977
  C     -159.999      19.516     162.930
  N     -161.030      18.777     163.479
  O     -157.796      15.762     159.005
  O     -158.798      18.059     159.086
  H     -163.300      17.329     162.454
  H     -159.353      17.559     158.457
  H     -164.098      22.503     164.685
  H     -159.100      19.057     162.529
  H     -161.572      17.157     164.594
  H     -161.151      16.982     161.551
  H     -165.802      21.026     165.334
  H     -160.689      14.728     161.698
  H     -165.510      19.322     165.217
  H     -159.102      14.881     164.008
  H     -157.429      16.094     162.643
  H     -158.177      14.824     161.671
  P     -161.582      12.641     163.189
  C     -164.063      12.558     162.544
  O     -162.729      12.357     162.106
  O     -162.199      12.033     164.536
  O     -160.269      11.983     162.883
  H     -161.557      11.417     164.946
  H     -164.738      12.088     161.823
  H     -164.277      13.632     162.580
  H     -164.224      12.111     163.528
  H     -155.385      19.401     160.460
  H     -157.047      19.567     160.974
  H     -156.655      19.564     159.271

 3  4  5  6  7  8  9  10  11  12  23  26  30  31 0
 6-311+G(2d,p)
 ****
 33  35  36  37  38 0
 6-311+G(2d,p)
 ****
 1  2  13  14  15  16  17  18  19  20  21  22  24  25 0
 3-21G
 ****
 27  28  29  32  34  39  40  41  42  43  44  45  46  47  48  49 0
 3-21G
 ****


