%nproc=1
%NoSave
%Mem=1900MB
#P OB98/GEN NMR

erre ene a

0 1
  C      272.576    -108.304     110.597
  O      273.266    -109.055     111.575
  H      273.063    -108.462     109.631
  H      272.616    -107.237     110.836
  H      271.535    -108.633     110.522
  P      272.750    -108.990     113.095
  C      274.146    -107.498     114.691
  O      273.223    -107.539     113.611
  C      275.491    -106.958     114.220
  O      275.372    -105.594     113.745
  C      276.569    -106.890     115.298
  O      277.109    -108.152     115.651
  C      277.587    -106.005     114.595
  O      278.289    -106.776     113.599
  C      276.662    -104.950     113.943
  N      276.517    -103.747     114.759
  C      277.692    -103.036     115.053
  O      278.778    -103.431     114.638
  N      277.601    -101.909     115.839
  C      276.452    -101.541     116.313
  N      276.429    -100.418     117.093
  C      275.196    -102.271     116.049
  C      275.299    -103.349     115.274
  O      273.137    -110.142     113.967
  O      271.165    -108.787     112.972
  H      278.989    -106.201     113.231
  H      270.796    -108.750     113.888
  H      274.266    -101.938     116.493
  H      274.419    -103.936     115.038
  H      277.040    -104.662     112.951
  H      278.338    -105.591     115.269
  H      276.201    -106.357     116.185
  H      275.814    -107.571     113.369
  H      277.306     -99.940     117.256
  H      274.249    -108.512     115.093
  H      275.591    -100.103     117.563
  H      273.769    -106.843     115.478
  P      277.956    -108.226     117.017
  C      280.488    -108.452     116.386
  O      279.393    -107.594     116.679
  O      278.247    -109.791     117.177
  O      277.288    -107.635     118.220
  H      277.617    -110.198     117.805
  H      281.359    -107.863     116.187
  H      280.255    -109.047     115.528
  H      280.674    -109.092     117.223

 6  7  8  9  10  11  12  13  14  15  16  26  30  31  32  33  35 0
 6-311+G(2d,p)
 ****
 37  38 0
 6-311+G(2d,p)
 ****
 1  2  3  4  5  17  18  19  20  21  22  23  24  25 0
 3-21G
 ****
 27  28  29  34  36  39  40  41  42  43  44  45  46 0
 3-21G
 ****


