%nproc=1
%NoSave
%Mem=1900MB
#P OB98/GEN NMR

erre ene a

0 1
  C     -430.532     -81.491     -42.201
  O     -429.618     -81.887     -43.205
  H     -431.389     -81.002     -42.679
  H     -430.060     -80.782     -41.520
  H     -430.889     -82.365     -41.647
  P     -428.279     -82.625     -42.711
  C     -428.612     -84.562     -44.408
  O     -427.770     -83.504     -43.961
  C     -428.188     -85.020     -45.808
  O     -428.414     -83.927     -46.747
  C     -426.709     -85.417     -45.914
  O     -426.593     -86.533     -46.795
  C     -426.072     -84.202     -46.568
  O     -424.852     -84.526     -47.229
  C     -427.199     -83.760     -47.497
  N     -424.786     -80.822     -50.798
  C     -424.768     -82.195     -50.639
  N     -423.991     -82.902     -51.493
  N     -425.460     -82.826     -49.724
  C     -426.217     -82.002     -48.964
  C     -426.308     -80.629     -49.011
  C     -425.525     -79.941     -50.014
  O     -425.474     -78.733     -50.184
  N     -427.160     -80.157     -48.038
  C     -427.578     -81.243     -47.408
  N     -427.037     -82.383     -47.935
  O     -428.816     -83.726     -41.680
  O     -427.244     -81.741     -42.103
  H     -424.466     -83.698     -47.570
  H     -428.152     -83.906     -40.988
  H     -424.228     -80.387     -51.512
  H     -428.263     -81.252     -46.569
  H     -427.260     -84.379     -48.402
  H     -425.861     -83.435     -45.809
  H     -423.453     -82.487     -52.244
  H     -426.252     -85.663     -44.953
  H     -423.971     -83.913     -51.401
  H     -428.841     -85.842     -46.116
  H     -429.647     -84.202     -44.438
  H     -428.539     -85.400     -43.710
  P     -426.535     -87.997     -46.139
  C     -428.283     -89.115     -47.706
  O     -426.939     -89.083     -47.258
  O     -427.797     -87.995     -45.157
  O     -425.268     -88.282     -45.401
  H     -427.500     -87.958     -44.230
  H     -428.395     -89.883     -48.443
  H     -428.539     -88.169     -48.135
  H     -428.930     -89.318     -46.878

 6  7  8  9  10  11  12  13  14  15  26  29  33  34 0
 6-311+G(2d,p)
 ****
 36  38  39  40  41 0
 6-311+G(2d,p)
 ****
 1  2  3  4  5  16  17  18  19  20  21  22  23  24  25 0
 3-21G
 ****
 27  28  30  31  32  35  37  42  43  44  45  46  47 0
 3-21G
 ****
 48  49 0
 3-21G
 ****


