%nproc=1
%NoSave
%Mem=1900MB
#P OB98/GEN NMR

erre ene a

0 1
  C     -271.137    1085.828    -398.370
  O     -271.313    1084.420    -398.418
  H     -270.468    1086.117    -399.181
  H     -270.686    1086.114    -397.416
  H     -272.093    1086.343    -398.502
  P     -272.375    1083.742    -397.425
  C     -270.431    1082.509    -396.261
  O     -271.711    1082.388    -396.877
  C     -270.073    1081.189    -395.571
  O     -270.864    1081.021    -394.374
  C     -270.344    1079.956    -396.420
  O     -269.343    1079.788    -397.409
  C     -270.367    1078.862    -395.359
  O     -269.027    1078.468    -394.998
  C     -271.055    1079.593    -394.179
  N     -272.481    1079.265    -394.072
  C     -272.843    1078.381    -393.063
  O     -272.020    1077.868    -392.293
  N     -274.176    1078.096    -392.966
  C     -275.151    1078.507    -393.834
  O     -276.317    1078.138    -393.757
  C     -274.708    1079.406    -394.907
  C     -273.414    1079.746    -394.963
  O     -273.756    1083.591    -397.965
  O     -272.352    1084.699    -396.138
  H     -268.528    1079.295    -394.868
  H     -273.155    1085.249    -396.127
  H     -274.453    1077.448    -392.236
  H     -275.459    1079.767    -395.606
  H     -273.075    1080.411    -395.759
  H     -270.568    1079.339    -393.233
  H     -270.890    1077.967    -395.688
  H     -271.333    1080.014    -396.884
  H     -269.012    1081.228    -395.266
  H     -270.473    1083.307    -395.518
  H     -269.681    1082.762    -397.026
  P     -269.765    1079.623    -398.947
  C     -269.562    1077.052    -398.939
  O     -269.089    1078.280    -399.505
  O     -269.569    1080.838    -399.800
  O     -271.322    1079.234    -398.880
  H     -271.851    1079.923    -399.345
  H     -269.042    1076.230    -399.385
  H     -270.611    1076.954    -399.125
  H     -269.386    1077.055    -397.884

 6  7  8  9  10  11  12  13  14  15  16  26  31  32  33  34  35 0
 6-311+G(2d,p)
 ****
 36  37 0
 6-311+G(2d,p)
 ****
 1  2  3  4  5  17  18  19  20  21  22  23  24  25 0
 3-21G
 ****
 27  28  29  30  38  39  40  41  42  43  44  45 0
 3-21G
 ****


