%nproc=1
%NoSave
%Mem=1900MB
#P OB98/GEN NMR

erre ene a

0 1
  C      -68.644     265.792     410.626
  O      -67.602     265.029     411.209
  H      -69.198     265.154     409.933
  H      -68.240     266.643     410.072
  H      -69.327     266.141     411.401
  P      -66.477     265.804     412.046
  C      -65.508     266.843     409.892
  O      -65.252     266.016     411.023
  C      -64.208     267.312     409.240
  O      -64.482     268.032     408.018
  C      -63.398     268.278     410.091
  O      -62.861     267.727     411.270
  C      -62.464     268.895     409.065
  O      -61.326     268.077     408.806
  C      -63.375     268.944     407.808
  N      -63.837     270.292     407.513
  C      -62.962     271.092     406.789
  O      -61.840     270.722     406.430
  N      -63.395     272.364     406.519
  C      -64.574     272.910     406.933
  O      -64.895     274.065     406.672
  C      -65.446     272.033     407.726
  C      -65.045     270.777     407.973
  O      -66.078     265.163     413.344
  O      -67.067     267.280     412.214
  H      -60.744     268.577     408.203
  H      -66.586     267.782     412.915
  H      -62.773     272.955     405.986
  H      -66.385     272.435     408.080
  H      -65.672     270.106     408.555
  H      -62.832     268.567     406.931
  H      -62.095     269.874     409.372
  H      -64.069     269.090     410.424
  H      -63.618     266.423     408.977
  H      -66.075     267.719     410.242
  H      -66.122     266.294     409.171
  P      -63.222     268.233     412.738
  C      -60.789     268.697     413.578
  O      -61.973     267.926     413.703
  O      -64.592     267.920     413.238
  O      -63.119     269.839     412.562
  H      -63.798     270.235     413.148
  H      -60.067     268.360     414.292
  H      -61.014     269.728     413.757
  H      -60.393     268.585     412.590

 6  7  8  9  10  11  12  13  14  15  16  26  31  32  33  34  35 0
 6-311+G(2d,p)
 ****
 36  37 0
 6-311+G(2d,p)
 ****
 1  2  3  4  5  17  18  19  20  21  22  23  24  25 0
 3-21G
 ****
 27  28  29  30  38  39  40  41  42  43  44  45 0
 3-21G
 ****


