%nproc=1
%NoSave
%Mem=1900MB
#P OB98/GEN NMR

erre ene a

0 1
  C      165.823     104.982       8.215
  O      165.890     106.386       8.373
  H      166.824     104.585       8.010
  H      165.450     104.540       9.142
  H      165.146     104.719       7.398
  P      166.248     107.244       7.066
  C      168.836     107.227       7.323
  O      167.709     106.749       6.604
  C      170.067     106.377       7.006
  O      171.181     106.842       7.816
  C      169.877     104.884       7.290
  O      170.537     104.128       6.273
  C      170.583     104.685       8.620
  O      171.016     103.340       8.810
  C      171.721     105.698       8.514
  N      174.892     104.423      12.311
  C      174.687     103.889      11.085
  N      173.821     104.296      10.132
  C      173.166     105.403      10.525
  C      173.260     106.059      11.744
  C      174.171     105.516      12.668
  N      174.363     106.029      13.931
  N      172.395     107.134      11.788
  C      171.781     107.123      10.618
  N      172.211     106.094       9.824
  O      166.526     108.705       7.680
  O      165.209     107.276       6.003
  H      171.862     103.221       8.326
  H      165.672     109.151       7.851
  H      175.288     103.021      10.843
  H      171.026     107.832      10.302
  H      172.575     105.314       7.950
  H      169.904     104.945       9.446
  H      168.825     104.594       7.339
  H      170.350     106.547       5.957
  H      168.624     107.176       8.398
  H      174.988     105.545      14.556
  H      173.791     106.810      14.239
  H      169.026     108.273       7.047
  P      169.595     103.437       5.168
  C      169.191     101.173       6.355
  O      168.626     102.392       5.898
  O      170.612     102.508       4.345
  O      168.911     104.423       4.268
  H      170.508     102.668       3.387
  H      168.431     100.579       6.818
  H      169.963     101.382       7.066
  H      169.605     100.639       5.525

 6  7  8  9  10  11  12  13  14  15  25  28  32  33  34  35 0
 6-311+G(2d,p)
 ****
 36  39  40 0
 6-311+G(2d,p)
 ****
 1  2  3  4  5  16  17  18  19  20  21  22  23  24 0
 3-21G
 ****
 26  27  29  30  31  37  38  41  42  43  44  45  46  47 0
 3-21G
 ****
 48 0
 3-21G
 ****


