%nproc=1
%NoSave
%Mem=1900MB
#P OB98/GEN NMR

erre ene a

0 1
  C      230.202     616.257    -313.778
  O      230.936     615.332    -314.554
  H      230.599     617.258    -313.951
  H      230.300     616.014    -312.715
  H      229.145     616.242    -314.067
  P      230.394     613.821    -314.583
  C      229.088     614.027    -316.857
  O      229.044     613.861    -315.448
  C      228.814     612.704    -317.572
  O      227.524     612.198    -317.134
  C      228.775     612.823    -319.096
  O      229.327     611.624    -319.653
  C      227.292     612.882    -319.406
  O      227.001     612.476    -320.744
  C      226.718     611.976    -318.308
  N      225.301     612.238    -318.049
  C      224.412     611.190    -318.278
  O      224.825     610.103    -318.691
  N      223.073     611.397    -318.075
  C      222.647     612.571    -317.736
  N      221.303     612.721    -317.575
  C      223.544     613.729    -317.524
  C      224.845     613.487    -317.687
  O      229.882     613.627    -313.081
  O      231.402     612.808    -315.029
  H      226.041     612.598    -320.900
  H      229.370     614.381    -312.748
  H      223.142     614.691    -317.252
  H      225.579     614.273    -317.543
  H      226.822     610.916    -318.587
  H      226.925     613.907    -319.281
  H      229.325     613.690    -319.470
  H      229.566     611.972    -317.251
  H      220.722     611.914    -317.752
  H      230.070     614.411    -317.163
  H      220.854     613.602    -317.363
  H      228.331     614.771    -317.130
  P      230.808     611.649    -320.278
  C      231.961     610.621    -318.195
  O      231.875     611.733    -319.084
  O      231.020     612.605    -321.402
  O      230.995     610.138    -320.792
  H      231.451     610.168    -321.655
  H      232.708     610.814    -317.454
  H      232.224     609.743    -318.747
  H      231.015     610.472    -317.718

 6  7  8  9  10  11  12  13  14  15  16  26  30  31  32  33  35 0
 6-311+G(2d,p)
 ****
 37  38 0
 6-311+G(2d,p)
 ****
 1  2  3  4  5  17  18  19  20  21  22  23  24  25 0
 3-21G
 ****
 27  28  29  34  36  39  40  41  42  43  44  45  46 0
 3-21G
 ****


