%nproc=1
%NoSave
%Mem=1900MB
#P OB98/GEN NMR

erre ene a

0 1
  C      650.563      56.975    -347.881
  O      651.383      58.127    -347.837
  H      651.124      56.131    -348.295
  H      650.254      56.721    -346.862
  H      649.668      57.160    -348.480
  P      651.937      58.673    -349.243
  C      653.911      59.855    -348.035
  O      653.507      58.917    -349.026
  C      655.432      59.805    -347.863
  O      655.824      58.539    -347.294
  C      656.208      59.926    -349.170
  O      656.341      61.279    -349.588
  C      657.548      59.349    -348.748
  O      658.283      60.330    -347.982
  C      657.120      58.176    -347.858
  N      659.707      54.444    -350.207
  C      660.104      55.587    -349.620
  N      659.358      56.524    -349.015
  C      658.059      56.203    -349.063
  C      657.489      55.082    -349.641
  C      658.379      54.158    -350.235
  N      657.960      52.999    -350.851
  N      656.112      55.104    -349.532
  C      655.860      56.216    -348.857
  N      657.001      56.925    -348.569
  O      651.342      60.162    -349.330
  O      651.591      57.851    -350.442
  H      657.720      60.569    -347.221
  H      651.342      60.467    -350.253
  H      661.186      55.760    -349.624
  H      654.874      56.555    -348.574
  H      657.811      58.017    -347.016
  H      658.183      59.069    -349.598
  H      655.779      59.296    -349.963
  H      655.723      60.595    -347.156
  H      653.433      59.602    -347.080
  H      658.657      52.508    -351.397
  H      656.979      52.860    -351.004
  H      653.596      60.862    -348.334
  P      656.989      61.537    -351.040
  C      657.876      63.875    -350.304
  O      658.193      62.572    -350.804
  O      655.874      62.420    -351.785
  O      657.336      60.295    -351.806
  H      655.931      62.297    -352.744
  H      658.775      64.446    -350.200
  H      657.399      63.785    -349.351
  H      657.217      64.369    -350.988

 6  7  8  9  10  11  12  13  14  15  25  28  32  33  34  35 0
 6-311+G(2d,p)
 ****
 36  39  40 0
 6-311+G(2d,p)
 ****
 1  2  3  4  5  16  17  18  19  20  21  22  23  24 0
 3-21G
 ****
 26  27  29  30  31  37  38  41  42  43  44  45  46  47 0
 3-21G
 ****
 48 0
 3-21G
 ****


