%nproc=1
%NoSave
%Mem=1900MB
#P OB98/GEN NMR

erre ene a

0 1
  C     -484.450    -893.880    -257.825
  O     -484.864    -894.610    -258.984
  P     -485.802    -895.890    -258.811
  C     -487.768    -895.050    -260.285
  O     -486.757    -896.040    -260.102
  C     -488.026    -894.830    -261.774
  O     -487.064    -893.910    -262.351
  C     -487.880    -896.100    -262.604
  O     -488.864    -897.090    -262.428
  C     -487.686    -895.560    -264.010
  O     -488.939    -895.240    -264.630
  C     -486.873    -894.270    -263.744
  N     -485.460    -894.420    -264.063
  C     -485.029    -893.780    -265.221
  O     -485.781    -893.160    -265.966
  N     -483.688    -893.910    -265.511
  C     -482.781    -894.620    -264.799
  O     -481.604    -894.720    -265.113
  C     -483.278    -895.290    -263.584
  C     -484.584    -895.150    -263.279
  O     -486.496    -896.020    -257.510
  O     -484.770    -897.110    -259.029
  H     -489.341    -894.500    -264.102
  H     -484.985    -897.800    -258.374
  H     -483.361    -893.440    -266.350
  H     -482.599    -895.870    -262.995
  H     -484.981    -895.640    -262.394
  H     -487.266    -893.430    -264.330
  H     -487.174    -896.270    -264.664
  H     -486.930    -896.580    -262.325
  H     -488.998    -894.380    -261.906
  H     -487.474    -894.120    -259.809
  H     -488.680    -895.390    -259.767
  P     -488.536    -898.650    -262.299
  C     -489.102    -899.050    -259.801
  O     -489.455    -899.280    -261.138
  O     -487.104    -899.060    -262.314
  O     -489.239    -899.240    -263.628
  H     -488.713    -900.000    -263.940
  H     -489.831    -899.550    -259.157
  H     -489.112    -897.990    -259.569
  H     -488.104    -899.480    -259.601
  H     -483.831    -893.060    -258.123
  H     -483.898    -894.526    -257.175
  H     -485.312    -893.508    -257.311

 3  4  5  6  7  8  9  10  11  12  13  23  28  29  30  31  32 0
 6-311+G(2d,p)
 ****
 33  34 0
 6-311+G(2d,p)
 ****
 1  2  14  15  16  17  18  19  20  21  22  24  25  26  27 0
 3-21G
 ****
 35  36  37  38  39  40  41  42  43  44  45 0
 3-21G
 ****


