%nproc=1
%NoSave
%Mem=1900MB
#P OB98/GEN NMR

erre ene a

0 1
  C      143.963    -234.004     -99.617
  O      142.594    -234.394     -99.535
  P      141.808    -235.219    -100.649
  C      140.129    -236.351     -98.970
  O      140.335    -235.528    -100.111
  C      139.997    -235.505     -97.694
  O      138.882    -234.576     -97.863
  C      139.693    -236.353     -96.455
  O      140.417    -235.952     -95.298
  C      138.177    -236.305     -96.375
  O      137.667    -236.634     -95.092
  C      137.877    -234.895     -96.875
  N      132.914    -234.110     -95.973
  C      133.940    -234.333     -95.078
  N      133.608    -234.370     -93.771
  N      135.184    -234.522     -95.433
  C      135.367    -234.539     -96.772
  C      134.428    -234.346     -97.759
  C      133.063    -234.087     -97.354
  O      132.120    -233.864     -98.104
  N      134.992    -234.426     -99.007
  C      136.262    -234.686     -98.778
  N      136.543    -234.757     -97.432
  O      142.551    -236.358    -101.264
  O      141.540    -234.133    -101.812
  H      137.892    -237.566     -94.910
  H      141.553    -234.626    -102.656
  H      131.978    -233.948     -95.643
  H      137.023    -234.817     -99.539
  H      137.946    -234.151     -96.077
  H      137.784    -237.051     -97.076
  H      132.658    -234.356     -93.437
  H      140.012    -237.391     -96.607
  H      134.317    -234.751     -93.143
  H      140.912    -234.917     -97.565
  H      141.013    -236.994     -98.900
  H      139.261    -236.996     -99.109
  P      141.483    -236.785     -94.449
  C      143.098    -234.872     -93.892
  O      142.163    -235.803     -93.381
  O      142.679    -237.089     -95.467
  O      140.962    -238.059     -93.869
  H      142.777    -238.055     -95.581
  H      143.674    -234.459     -93.059
  H      142.569    -234.057     -94.395
  H      143.784    -235.354     -94.593
  H      144.233    -233.462     -98.735
  H      144.106    -233.382    -100.476
  H      144.578    -234.876     -99.702

 3  4  5  6  7  8  9  10  11  12  23  26  30  31 0
 6-311+G(2d,p)
 ****
 33  35  36  37  38 0
 6-311+G(2d,p)
 ****
 1  2  13  14  15  16  17  18  19  20  21  22  24  25 0
 3-21G
 ****
 27  28  29  32  34  39  40  41  42  43  44  45  46  47  48  49 0
 3-21G
 ****


