%nproc=1
%NoSave
%Mem=1900MB
#P OB98/GEN NMR

erre ene a

0 1
  C       -6.288       4.023      40.924
  O       -5.972       5.314      40.403
  P       -6.848       6.575      40.860
  C       -5.887       7.244      43.155
  O       -5.935       7.537      41.766
  C       -4.459       7.401      43.696
  O       -3.623       6.288      43.265
  C       -3.783       8.687      43.205
  O       -2.888       9.200      44.206
  C       -2.943       8.204      42.039
  O       -1.887       9.112      41.736
  C       -2.493       6.841      42.559
  N        1.254       3.747      40.946
  C        1.094       4.440      42.095
  N        0.060       5.224      42.464
  C       -0.885       5.246      41.509
  C       -0.864       4.583      40.292
  C        0.275       3.808      40.015
  N        0.451       3.126      38.833
  N       -2.009       4.848      39.568
  C       -2.686       5.695      40.316
  N       -2.065       5.940      41.511
  O       -8.188       6.259      41.433
  O       -6.990       7.418      39.503
  H       -1.337       8.702      41.044
  H       -7.904       7.756      39.431
  H        1.907       4.357      42.810
  H       -3.616       6.168      40.037
  H       -1.669       6.932      43.277
  H       -3.572       8.100      41.147
  H       -4.475       9.483      42.913
  H       -4.488       7.374      44.790
  H       -6.241       6.226      43.329
  H        1.349       2.693      38.676
  H       -0.200       3.282      38.076
  H       -6.587       7.900      43.684
  P       -3.337      10.575      44.915
  C       -4.993      10.360      46.926
  O       -3.685      10.189      46.430
  O       -4.392      11.316      44.164
  O       -1.947      11.361      45.016
  H       -1.216      10.851      45.402
  H       -5.050       9.923      47.926
  H       -5.722       9.858      46.285
  H       -5.232      11.425      46.995
  H       -5.611       3.300      40.520
  H       -7.290       3.764      40.653
  H       -6.200       4.037      41.990

 3  4  5  6  7  8  9  10  11  12  22  25  29  30  31  32 0
 6-311+G(2d,p)
 ****
 33  36  37 0
 6-311+G(2d,p)
 ****
 1  2  13  14  15  16  17  18  19  20  21  23  24  26 0
 3-21G
 ****
 27  28  34  35  38  39  40  41  42  43  44  45  46  47  48 0
 3-21G
 ****


