%nproc=1
%NoSave
%Mem=1900MB
#P OB98/GEN NMR

erre ene a

0 1
  C     -411.092    -321.384    -414.190
  O     -412.075    -322.387    -414.471
  P     -412.056    -323.049    -415.933
  C     -412.555    -325.593    -415.682
  O     -411.571    -324.570    -415.793
  C     -412.470    -326.263    -414.305
  O     -412.713    -325.314    -413.251
  C     -413.506    -327.353    -414.108
  O     -413.110    -328.539    -414.769
  C     -413.543    -327.482    -412.588
  O     -412.587    -328.445    -412.110
  C     -413.170    -326.061    -412.108
  N     -414.272    -325.385    -411.445
  C     -414.518    -325.767    -410.122
  O     -413.825    -326.638    -409.592
  N     -415.543    -325.163    -409.446
  C     -416.282    -324.278    -410.045
  N     -417.292    -323.725    -409.321
  C     -416.079    -323.871    -411.446
  C     -415.066    -324.459    -412.083
  O     -410.812    -322.332    -416.643
  O     -413.321    -322.856    -416.703
  H     -412.617    -328.389    -411.133
  H     -410.982    -322.232    -417.596
  H     -416.725    -323.139    -411.907
  H     -414.844    -324.224    -413.121
  H     -412.328    -326.104    -411.407
  H     -414.525    -327.815    -412.240
  H     -414.482    -327.017    -414.475
  H     -411.456    -326.677    -414.185
  H     -417.405    -324.027    -408.363
  H     -412.417    -326.337    -416.466
  H     -417.928    -323.032    -409.693
  H     -413.546    -325.150    -415.839
  P     -413.730    -328.830    -416.216
  C     -411.643    -329.663    -417.447
  O     -412.529    -328.581    -417.249
  O     -414.646    -327.526    -416.455
  O     -414.511    -330.091    -416.390
  H     -415.159    -327.626    -417.275
  H     -411.008    -329.443    -418.311
  H     -412.193    -330.582    -417.646
  H     -411.002    -329.789    -416.569
  H     -411.219    -321.031    -413.188
  H     -411.209    -320.569    -414.873
  H     -410.114    -321.803    -414.300

 3  4  5  6  7  8  9  10  11  12  13  21  23  27  28  29  30  32 0
 6-311+G(2d,p)
 ****
 34  35 0
 6-311+G(2d,p)
 ****
 1  2  14  15  16  17  18  19  20  22  24  25  26 0
 3-21G
 ****
 31  33  36  37  38  39  40  41  42  43  44  45  46 0
 3-21G
 ****


