%nproc=1
%NoSave
%Mem=1900MB
#P OB98/GEN NMR

erre ene a

0 1
  C     -179.283    -870.909     400.637
  O     -179.617    -872.256     400.379
  H     -178.853    -870.475     399.728
  H     -178.537    -870.850     401.436
  H     -180.168    -870.327     400.911
  P     -180.436    -873.072     401.489
  C     -182.817    -872.488     400.667
  O     -181.827    -873.499     400.814
  C     -183.647    -872.720     399.397
  O     -182.778    -872.518     398.234
  C     -184.233    -874.143     399.278
  O     -185.456    -874.027     398.525
  C     -183.153    -874.827     398.456
  O     -183.564    -876.084     397.967
  C     -182.858    -873.720     397.442
  N     -181.647    -873.900     396.653
  C     -181.701    -874.760     395.558
  O     -182.713    -875.381     395.205
  N     -180.539    -874.902     394.858
  C     -179.353    -874.277     395.120
  O     -178.351    -874.426     394.432
  C     -179.351    -873.396     396.295
  C     -180.477    -873.245     396.992
  O     -180.560    -872.415     402.819
  O     -179.652    -874.465     401.588
  H     -179.083    -874.469     402.384
  H     -182.778    -876.563     397.620
  H     -180.562    -875.519     394.051
  H     -178.424    -872.892     396.536
  H     -180.515    -872.583     397.854
  H     -183.707    -873.602     396.760
  H     -182.284    -875.028     399.088
  H     -184.437    -874.605     400.242
  H     -184.426    -871.961     399.343
  H     -182.309    -871.520     400.607
  H     -183.470    -872.499     401.547
  P     -186.856    -874.644     399.018
  C     -188.308    -872.649     398.231
  O     -188.025    -874.045     398.098
  O     -187.106    -874.486     400.488
  O     -186.796    -876.189     398.610
  H     -187.376    -876.702     399.202
  H     -189.102    -872.381     397.566
  H     -187.433    -872.083     397.988
  H     -188.600    -872.439     399.239

 6  7  8  9  10  11  12  13  14  15  16  27  31  32  33  34  35 0
 6-311+G(2d,p)
 ****
 36  37 0
 6-311+G(2d,p)
 ****
 1  2  3  4  5  17  18  19  20  21  22  23  24  25 0
 3-21G
 ****
 26  28  29  30  38  39  40  41  42  43  44  45 0
 3-21G
 ****


