%nproc=1
%NoSave
%Mem=1900MB
#P OB98/GEN NMR

erre ene a

0 1
  C      -52.117     -19.232     305.199
  O      -53.177     -18.307     305.072
  H      -51.796     -19.258     306.243
  H      -51.270     -18.926     304.579
  H      -52.451     -20.230     304.905
  P      -53.760     -18.071     303.596
  C      -55.986     -19.410     303.612
  O      -54.618     -19.374     303.228
  C      -56.815     -20.028     302.492
  O      -56.876     -19.121     301.367
  C      -56.243     -21.325     301.938
  O      -56.517     -22.434     302.774
  C      -56.959     -21.405     300.599
  O      -58.267     -21.985     300.735
  C      -57.051     -19.920     300.181
  N      -56.085     -19.581     299.142
  C      -56.465     -19.894     297.841
  O      -57.540     -20.425     297.561
  N      -55.546     -19.612     296.867
  C      -54.300     -19.095     297.068
  O      -53.496     -18.933     296.159
  C      -53.960     -18.769     298.464
  C      -54.851     -19.033     299.424
  O      -52.461     -18.195     302.669
  O      -54.472     -16.776     303.398
  H      -52.161     -17.308     302.397
  H      -58.650     -22.004     299.837
  H      -55.797     -19.842     295.918
  H      -52.980     -18.352     298.659
  H      -54.614     -18.822     300.461
  H      -58.054     -19.697     299.796
  H      -56.412     -22.023     299.889
  H      -55.168     -21.217     301.756
  H      -57.839     -20.183     302.863
  H      -56.339     -18.391     303.798
  H      -56.081     -19.991     304.535
  P      -55.763     -23.818     302.479
  C      -53.309     -23.321     303.272
  O      -54.226     -23.451     302.202
  O      -56.344     -24.186     301.036
  O      -55.981     -24.853     303.529
  H      -56.492     -23.404     300.476
  H      -52.342     -23.075     302.885
  H      -53.254     -24.245     303.809
  H      -53.638     -22.545     303.931

 6  7  8  9  10  11  12  13  14  15  16  27  31  32  33  34  35 0
 6-311+G(2d,p)
 ****
 36  37 0
 6-311+G(2d,p)
 ****
 1  2  3  4  5  17  18  19  20  21  22  23  24  25 0
 3-21G
 ****
 26  28  29  30  38  39  40  41  42  43  44  45 0
 3-21G
 ****


