%nproc=1
%NoSave
%Mem=1900MB
#P OB98/GEN NMR

erre ene a

0 1
  C     -632.667     465.567    -485.325
  O     -633.675     465.301    -484.372
  H     -632.786     464.872    -486.166
  H     -631.674     465.414    -484.884
  H     -632.755     466.586    -485.704
  P     -633.685     466.142    -483.008
  C     -636.265     466.204    -482.958
  O     -635.077     465.823    -482.277
  C     -637.407     466.430    -481.958
  O     -637.859     465.129    -481.507
  C     -636.960     467.234    -480.730
  O     -637.787     468.370    -480.467
  C     -636.851     466.176    -479.637
  O     -637.024     466.664    -478.325
  C     -637.880     465.124    -480.070
  N     -637.612     463.786    -479.554
  C     -638.626     463.162    -478.829
  O     -639.742     463.643    -478.617
  N     -638.331     461.913    -478.348
  C     -637.150     461.249    -478.500
  O     -636.944     460.126    -478.058
  C     -636.108     461.968    -479.247
  C     -636.383     463.181    -479.733
  O     -633.364     467.595    -483.139
  O     -632.611     465.388    -482.083
  H     -636.385     467.385    -478.183
  H     -631.781     465.896    -482.069
  H     -639.066     461.448    -477.836
  H     -635.155     461.476    -479.387
  H     -635.637     463.743    -480.297
  H     -638.880     465.410    -479.747
  H     -635.845     465.735    -479.687
  H     -635.971     467.676    -480.895
  H     -638.242     466.911    -482.480
  H     -636.524     465.405    -483.662
  H     -636.084     467.126    -483.525
  P     -637.320     469.888    -480.619
  C     -639.404     470.777    -481.938
  O     -638.626     470.805    -480.745
  O     -636.219     470.135    -481.597
  O     -636.755     470.245    -479.145
  H     -636.023     470.881    -479.273
  H     -640.231     471.449    -481.840
  H     -639.768     469.785    -482.103
  H     -638.797     471.077    -482.767

 6  7  8  9  10  11  12  13  14  15  16  26  31  32  33  34  35 0
 6-311+G(2d,p)
 ****
 36  37 0
 6-311+G(2d,p)
 ****
 1  2  3  4  5  17  18  19  20  21  22  23  24  25 0
 3-21G
 ****
 27  28  29  30  38  39  40  41  42  43  44  45 0
 3-21G
 ****


