%nproc=1
%NoSave
%Mem=1900MB
#P OB98/GEN NMR

erre ene a

0 1
  C       30.140      54.301      33.628
  O       30.762      54.290      32.359
  H       30.914      54.206      34.395
  H       29.456      53.454      33.721
  H       29.602      55.238      33.788
  P       29.859      54.514      31.053
  C       30.602      52.996      29.117
  O       30.803      54.232      29.785
  C       31.351      52.977      27.786
  O       30.855      54.058      26.956
  C       32.866      53.152      27.930
  O       33.512      52.324      26.963
  C       33.087      54.611      27.581
  O       34.399      54.856      27.077
  C       31.983      54.859      26.554
  N       33.404      59.385      24.820
  C       33.972      58.140      24.634
  N       35.102      58.092      23.897
  N       33.477      57.037      25.130
  C       32.336      57.230      25.836
  C       31.678      58.409      26.093
  C       32.244      59.626      25.549
  O       31.793      60.756      25.691
  N       30.566      58.198      26.871
  C       30.557      56.895      27.085
  N       31.616      56.265      26.487
  O       29.124      55.814      30.998
  O       28.861      53.265      31.053
  H       34.533      54.248      26.318
  H       27.987      53.522      31.402
  H       33.832      60.203      24.423
  H       29.817      56.363      27.668
  H       32.279      54.559      25.542
  H       32.940      55.232      28.474
  H       35.531      58.897      23.469
  H       33.230      52.909      28.933
  H       35.524      57.186      23.726
  H       31.112      52.042      27.266
  H       29.528      52.873      28.936
  H       30.949      52.176      29.755
  P       33.953      50.843      27.387
  C       36.064      50.644      25.924
  O       34.737      50.181      26.154
  O       32.880      49.996      27.987
  O       35.133      51.113      28.442
  H       35.148      50.382      29.090
  H       36.479      50.132      25.081
  H       36.664      50.452      26.789
  H       36.046      51.696      25.729

 6  7  8  9  10  11  12  13  14  15  26  29  33  34 0
 6-311+G(2d,p)
 ****
 36  38  39  40  41 0
 6-311+G(2d,p)
 ****
 1  2  3  4  5  16  17  18  19  20  21  22  23  24  25 0
 3-21G
 ****
 27  28  30  31  32  35  37  42  43  44  45  46  47 0
 3-21G
 ****
 48  49 0
 3-21G
 ****


