%nproc=1
%NoSave
%Mem=1900MB
#P OB98/GEN NMR

erre ene a

0 1
  C     -451.594      42.035    -413.636
  O     -451.151      43.367    -413.797
  H     -451.574      41.543    -414.613
  H     -452.621      42.023    -413.262
  H     -450.941      41.487    -412.955
  P     -450.926      44.267    -412.487
  C     -448.606      45.014    -413.332
  O     -449.340      44.399    -412.278
  C     -447.116      45.006    -412.995
  O     -446.655      43.647    -412.828
  C     -446.236      45.605    -414.087
  O     -446.316      47.019    -414.101
  C     -444.882      45.038    -413.703
  O     -444.271      45.810    -412.661
  C     -445.252      43.629    -413.189
  N     -444.979      42.592    -414.186
  C     -443.951      41.706    -413.883
  O     -443.296      41.753    -412.840
  N     -443.650      40.788    -414.851
  C     -444.172      40.764    -416.115
  O     -443.704      40.088    -417.026
  C     -445.295      41.684    -416.356
  C     -445.633      42.550    -415.401
  O     -451.695      43.853    -411.279
  O     -451.343      45.739    -412.971
  H     -452.237      45.943    -412.637
  H     -443.419      45.363    -412.465
  H     -442.879      40.167    -414.658
  H     -445.787      41.645    -417.321
  H     -446.441      43.260    -415.568
  H     -444.694      43.393    -412.276
  H     -444.198      45.028    -414.554
  H     -446.529      45.200    -415.059
  H     -446.973      45.534    -412.043
  H     -448.950      46.049    -413.440
  H     -448.795      44.473    -414.261
  P     -447.104      47.769    -415.274
  C     -448.149      49.713    -413.955
  O     -448.392      48.488    -414.642
  O     -447.382      46.940    -416.486
  O     -446.157      49.010    -415.642
  H     -446.023      49.026    -416.612
  H     -449.073      50.100    -413.578
  H     -447.715      50.421    -414.630
  H     -447.477      49.538    -413.141

 6  7  8  9  10  11  12  13  14  15  16  27  31  32  33  34  35 0
 6-311+G(2d,p)
 ****
 36  37 0
 6-311+G(2d,p)
 ****
 1  2  3  4  5  17  18  19  20  21  22  23  24  25 0
 3-21G
 ****
 26  28  29  30  38  39  40  41  42  43  44  45 0
 3-21G
 ****


