%nproc=1
%NoSave
%Mem=1900MB
#P OB98/GEN NMR

erre ene a

0 1
  C     -235.499     840.155    -187.654
  O     -235.744     840.766    -186.380
  P     -236.940     840.177    -185.492
  C     -235.973     841.129    -183.279
  O     -237.088     841.067    -184.165
  C     -234.920     842.132    -183.768
  O     -235.534     843.424    -184.062
  C     -233.803     842.390    -182.760
  O     -232.610     842.708    -183.477
  C     -234.283     843.645    -182.048
  O     -233.221     844.304    -181.366
  C     -234.894     844.406    -183.225
  N     -236.916     848.896    -184.335
  C     -235.917     848.183    -184.974
  N     -235.412     848.732    -186.096
  N     -235.465     847.033    -184.549
  C     -236.092     846.584    -183.433
  C     -237.082     847.206    -182.704
  C     -237.557     848.491    -183.170
  O     -238.423     849.174    -182.632
  N     -237.442     846.452    -181.613
  C     -236.664     845.383    -181.687
  N     -235.856     845.406    -182.786
  O     -236.334     838.793    -184.952
  O     -238.208     839.952    -186.254
  H     -233.591     845.124    -180.974
  H     -236.766     838.049    -185.400
  H     -237.221     849.780    -184.697
  H     -236.651     844.573    -180.973
  H     -234.138     844.928    -183.818
  H     -235.047     843.382    -181.308
  H     -235.751     849.588    -186.503
  H     -233.600     841.566    -182.071
  H     -234.709     848.208    -186.609
  H     -234.491     841.763    -184.707
  H     -235.510     840.141    -183.185
  H     -236.338     841.390    -182.277
  P     -231.439     841.618    -183.459
  C     -230.829     841.655    -185.977
  O     -230.450     841.988    -184.668
  O     -232.156     840.275    -183.958
  O     -230.778     841.425    -182.127
  H     -231.683     839.493    -183.623
  H     -231.177     842.559    -186.495
  H     -231.632     840.908    -186.002
  H     -229.968     841.260    -186.510
  H     -234.678     840.646    -188.133
  H     -236.373     840.242    -188.265
  H     -235.263     839.121    -187.514

 3  4  5  6  7  8  9  10  11  12  23  26  30  31 0
 6-311+G(2d,p)
 ****
 33  35  36  37  38 0
 6-311+G(2d,p)
 ****
 1  2  13  14  15  16  17  18  19  20  21  22  24  25 0
 3-21G
 ****
 27  28  29  32  34  39  40  41  42  43  44  45  46  47  48  49 0
 3-21G
 ****


