%nproc=1
%NoSave
%Mem=1900MB
#P OB98/GEN NMR

erre ene a

0 1
  C     -338.953    -814.824     534.566
  O     -338.897    -815.445     535.834
  H     -338.295    -813.950     534.572
  H     -339.972    -814.496     534.353
  H     -338.613    -815.517     533.789
  P     -339.798    -816.753     536.040
  C     -341.677    -815.255     537.017
  O     -341.327    -816.246     536.064
  C     -343.103    -814.756     536.768
  O     -344.011    -815.893     536.787
  C     -343.599    -813.747     537.815
  O     -344.401    -812.758     537.159
  C     -344.494    -814.591     538.705
  O     -345.454    -813.806     539.404
  C     -345.087    -815.553     537.681
  N     -348.263    -819.390     536.955
  C     -347.868    -818.379     536.100
  N     -348.405    -818.384     534.861
  N     -347.022    -817.439     536.435
  C     -346.546    -817.571     537.695
  C     -346.864    -818.517     538.642
  C     -347.817    -819.539     538.266
  O     -348.222    -820.446     538.985
  N     -346.192    -818.283     539.816
  C     -345.472    -817.202     539.582
  N     -345.652    -816.734     538.306
  O     -339.527    -817.159     537.566
  O     -339.526    -817.879     535.100
  H     -346.131    -814.413     539.768
  H     -339.606    -818.126     537.686
  H     -348.924    -820.080     536.652
  H     -344.811    -816.721     540.290
  H     -345.895    -815.092     537.090
  H     -343.887    -815.131     539.444
  H     -349.036    -819.093     534.523
  H     -342.796    -813.262     538.369
  H     -348.116    -817.656     534.212
  H     -343.151    -814.332     535.758
  H     -340.979    -814.416     536.935
  H     -341.609    -815.680     538.024
  P     -343.644    -811.494     536.531
  C     -343.236    -809.822     538.475
  O     -342.699    -810.847     537.655
  O     -344.821    -810.414     536.371
  O     -342.986    -811.769     535.221
  H     -345.044    -810.305     535.434
  H     -342.491    -809.494     539.170
  H     -344.082    -810.200     539.010
  H     -343.540    -808.998     537.863

 6  7  8  9  10  11  12  13  14  15  26  29  33  34 0
 6-311+G(2d,p)
 ****
 36  38  39  40  41 0
 6-311+G(2d,p)
 ****
 1  2  3  4  5  16  17  18  19  20  21  22  23  24  25 0
 3-21G
 ****
 27  28  30  31  32  35  37  42  43  44  45  46  47 0
 3-21G
 ****
 48  49 0
 3-21G
 ****


