%nproc=1
%NoSave
%Mem=1900MB
#P OB98/GEN NMR

erre ene a

0 1
  C      -90.900     157.276     -68.646
  O      -91.796     156.968     -69.694
  H      -91.097     156.602     -67.808
  H      -91.050     158.303     -68.309
  H      -89.864     157.138     -68.968
  P      -91.633     157.722     -71.097
  C      -93.288     159.594     -70.463
  O      -91.952     159.271     -70.832
  C      -93.881     160.576     -71.469
  O      -93.252     161.871     -71.337
  C      -93.683     160.164     -72.924
  O      -94.571     159.123     -73.278
  C      -93.927     161.492     -73.624
  O      -95.332     161.767     -73.735
  C      -93.256     162.486     -72.645
  N      -91.900     162.860     -73.056
  C      -91.733     164.168     -73.496
  O      -92.650     164.985     -73.551
  N      -90.471     164.498     -73.917
  C      -89.417     163.637     -74.023
  O      -88.374     163.917     -74.607
  C      -89.632     162.291     -73.475
  C      -90.851     161.964     -73.038
  O      -92.364     157.115     -72.249
  O      -90.050     157.721     -71.343
  H      -89.822     157.016     -71.979
  H      -95.745     160.957     -74.091
  H      -90.350     165.431     -74.283
  H      -88.801     161.599     -73.480
  H      -91.041     160.967     -72.656
  H      -93.853     163.404     -72.563
  H      -93.517     161.511     -74.635
  H      -92.642     159.862     -73.091
  H      -94.948     160.695     -71.241
  H      -93.271     160.056     -69.469
  H      -93.880     158.675     -70.418
  P      -94.110     157.933     -74.244
  C      -95.396     158.673     -76.333
  O      -94.114     158.484     -75.747
  O      -94.839     156.645     -74.054
  O      -92.548     157.756     -73.931
  H      -92.370     156.821     -73.713
  H      -95.281     159.041     -77.331
  H      -95.952     159.380     -75.754
  H      -95.919     157.740     -76.355

 6  7  8  9  10  11  12  13  14  15  16  27  31  32  33  34  35 0
 6-311+G(2d,p)
 ****
 36  37 0
 6-311+G(2d,p)
 ****
 1  2  3  4  5  17  18  19  20  21  22  23  24  25 0
 3-21G
 ****
 26  28  29  30  38  39  40  41  42  43  44  45 0
 3-21G
 ****


