%nproc=1
%NoSave
%Mem=1900MB
#P OB98/GEN NMR

erre ene a

0 1
  C     -450.888     546.302    -376.703
  O     -450.020     545.203    -376.517
  H     -450.665     547.060    -375.945
  H     -451.929     545.989    -376.587
  H     -450.740     546.737    -377.694
  P     -450.269     543.934    -377.468
  C     -448.302     544.767    -378.966
  O     -449.677     544.404    -378.885
  C     -447.781     544.488    -380.380
  O     -447.646     543.066    -380.604
  C     -448.702     544.985    -381.487
  O     -448.582     546.379    -381.713
  C     -448.174     544.180    -382.657
  O     -446.926     544.745    -383.115
  C     -447.942     542.802    -381.993
  N     -449.093     541.909    -382.114
  C     -449.344     541.372    -383.383
  O     -448.625     541.658    -384.340
  N     -450.425     540.544    -383.545
  C     -451.190     540.263    -382.538
  N     -452.260     539.446    -382.761
  C     -450.961     540.789    -381.183
  C     -449.904     541.596    -381.043
  O     -451.849     543.961    -377.730
  O     -449.746     542.623    -376.971
  H     -446.286     544.647    -382.385
  H     -452.089     543.284    -378.412
  H     -451.623     540.537    -380.367
  H     -449.673     542.027    -380.077
  H     -447.068     542.299    -382.425
  H     -448.851     544.164    -383.519
  H     -449.741     544.700    -381.307
  H     -446.782     544.931    -380.458
  H     -452.432     539.148    -383.713
  H     -447.744     544.175    -378.239
  H     -453.000     539.328    -382.081
  H     -448.181     545.826    -378.741
  P     -449.602     547.050    -382.764
  C     -450.834     548.726    -381.207
  O     -450.900     547.498    -381.928
  O     -450.132     545.798    -383.606
  O     -449.001     548.106    -383.638
  H     -450.230     546.023    -384.544
  H     -451.762     548.894    -380.702
  H     -450.648     549.530    -381.888
  H     -450.042     548.676    -380.489

 6  7  8  9  10  11  12  13  14  15  16  26  30  31  32  33  35 0
 6-311+G(2d,p)
 ****
 37  38 0
 6-311+G(2d,p)
 ****
 1  2  3  4  5  17  18  19  20  21  22  23  24  25 0
 3-21G
 ****
 27  28  29  34  36  39  40  41  42  43  44  45  46 0
 3-21G
 ****


