%nproc=1
%NoSave
%Mem=1900MB
#P OB98/GEN NMR

erre ene a

0 1
  C      211.077      38.581      12.673
  O      210.288      38.051      13.743
  P      209.827      39.092      14.881
  C      207.507      39.927      14.048
  O      208.223      39.070      14.927
  C      206.146      40.289      14.636
  O      205.572      41.421      13.957
  C      205.103      39.187      14.520
  O      205.269      38.197      15.524
  C      203.818      39.972      14.746
  O      203.593      40.148      16.156
  C      204.132      41.321      14.078
  N      200.119      42.928      11.434
  C      200.352      42.957      12.794
  N      199.388      43.520      13.557
  N      201.429      42.480      13.358
  C      202.320      41.975      12.470
  C      202.204      41.888      11.103
  C      200.991      42.392      10.494
  O      200.721      42.361       9.298
  N      203.317      41.321      10.540
  C      204.118      41.090      11.560
  N      203.551      41.457      12.756
  O      210.158      40.513      14.222
  O      210.519      38.905      16.188
  H      202.851      40.779      16.250
  H      210.325      41.174      14.919
  H      199.267      43.304      11.054
  H      205.112      40.667      11.488
  H      203.797      42.166      14.690
  H      202.935      39.464      14.345
  H      198.567      43.971      13.183
  H      205.101      38.752      13.512
  H      199.558      43.582      14.553
  H      206.292      40.554      15.692
  H      207.367      39.435      13.083
  H      208.106      40.825      13.863
  P      204.816      36.701      15.162
  C      206.847      35.619      13.964
  O      206.160      35.830      15.181
  O      204.441      36.803      13.609
  O      203.683      36.182      15.980
  H      203.761      36.140      13.383
  H      206.898      36.537      13.373
  H      206.344      34.838      13.387
  H      207.866      35.291      14.187
  H      211.319      37.797      11.986
  H      211.979      39.000      13.068
  H      210.523      39.343      12.165

 3  4  5  6  7  8  9  10  11  12  23  26  30  31  33  0
 6-311+G(2d,p)
 ****
 35  36  37  38 0
 6-311+G(2d,p)
 ****
 1  2  13  14  15  16  17  18  19  20  21  22  24  25  27  28  29 0
 3-21G
 ****
 32  34  39  40  41  42  43  44  45  46  47  48  49 0
 3-21G
 ****


