%nproc=1
%NoSave
%Mem=1900MB
#P OB98/GEN NMR

erre ene a

0 1
  C      451.022    -183.500     179.217
  O      450.489    -184.192     180.352
  P      449.722    -183.335     181.470
  C      449.229    -181.061     180.295
  O      448.726    -182.313     180.740
  C      448.091    -180.054     180.105
  O      447.114    -180.516     179.152
  C      447.306    -179.771     181.384
  O      447.971    -178.818     182.198
  C      446.026    -179.186     180.815
  O      446.237    -177.797     180.471
  C      445.813    -180.022     179.547
  N      442.348    -183.047     177.289
  C      443.045    -181.976     176.843
  N      443.934    -181.214     177.502
  C      444.093    -181.657     178.765
  C      443.453    -182.735     179.367
  C      442.543    -183.448     178.570
  N      441.843    -184.543     179.036
  N      443.862    -182.882     180.674
  C      444.750    -181.919     180.852
  N      444.916    -181.147     179.734
  O      450.875    -182.377     182.036
  O      449.116    -184.162     182.549
  H      446.619    -177.365     181.259
  H      450.734    -182.219     182.989
  H      442.858    -181.698     175.800
  H      445.299    -181.744     181.775
  H      445.420    -179.424     178.713
  H      445.197    -179.212     181.531
  H      447.089    -180.705     181.926
  H      448.526    -179.118     179.727
  H      449.779    -181.189     179.359
  H      441.223    -185.013     178.392
  H      442.001    -184.855     179.980
  H      449.964    -180.692     181.030
  P      449.136    -179.361     183.168
  C      451.613    -180.080     182.791
  O      450.406    -179.622     182.211
  O      448.625    -180.834     183.543
  O      449.382    -178.519     184.367
  H      448.954    -181.079     184.436
  H      452.245    -180.487     182.003
  H      451.422    -180.863     183.533
  H      452.133    -179.240     183.265
  H      451.501    -184.200     178.565
  H      451.735    -182.773     179.545
  H      450.228    -183.010     178.693

 3  4  5  6  7  8  9  10  11  12  22  25  29  30  31  32 0
 6-311+G(2d,p)
 ****
 33  36  37 0
 6-311+G(2d,p)
 ****
 1  2  13  14  15  16  17  18  19  20  21  23  24  26 0
 3-21G
 ****
 27  28  34  35  38  39  40  41  42  43  44  45  46  47  48 0
 3-21G
 ****


