%nproc=1
%NoSave
%Mem=1900MB
#P OB98/GEN NMR

erre ene a

0 1
  C     -451.638     227.793    -713.423
  O     -452.021     228.777    -714.377
  P     -451.116     228.875    -715.708
  C     -450.826     231.407    -715.113
  O     -450.220     230.194    -715.534
  C     -449.756     232.480    -714.901
  O     -449.032     232.249    -713.683
  C     -448.722     232.536    -716.024
  O     -449.211     233.263    -717.131
  C     -447.542     233.208    -715.306
  O     -447.727     234.644    -715.263
  C     -447.641     232.609    -713.892
  N     -442.863     230.973    -713.565
  C     -443.352     232.205    -713.939
  N     -442.444     233.155    -714.218
  N     -444.637     232.496    -714.026
  C     -445.423     231.437    -713.724
  C     -445.062     230.167    -713.356
  C     -443.653     229.880    -713.213
  O     -443.162     228.833    -712.795
  N     -446.160     229.360    -713.172
  C     -447.188     230.165    -713.375
  N     -446.802     231.438    -713.702
  O     -452.177     229.254    -716.828
  O     -450.325     227.638    -716.030
  H     -448.131     234.944    -716.095
  H     -452.435     228.456    -717.338
  H     -441.874     230.828    -713.500
  H     -448.219     229.866    -713.282
  H     -447.369     233.331    -713.121
  H     -446.604     233.043    -715.815
  H     -441.446     233.014    -714.206
  H     -448.420     231.514    -716.315
  H     -442.789     234.076    -714.500
  H     -450.273     233.457    -714.812
  H     -451.340     231.226    -714.155
  H     -451.573     231.720    -715.857
  P     -448.662     232.852    -718.583
  C     -448.747     235.240    -719.603
  O     -447.954     234.143    -719.194
  O     -450.007     232.696    -719.453
  O     -447.860     231.602    -718.613
  H     -449.901     231.976    -720.096
  H     -448.164     236.164    -719.496
  H     -449.660     235.319    -719.012
  H     -449.009     235.116    -720.662
  H     -452.309     227.824    -712.590
  H     -450.642     227.991    -713.087
  H     -451.676     226.824    -713.875

 3  4  5  6  7  8  9  10  11  12  23  26  30  31 0
 6-311+G(2d,p)
 ****
 33  35  36  37  38 0
 6-311+G(2d,p)
 ****
 1  2  13  14  15  16  17  18  19  20  21  22  24  25 0
 3-21G
 ****
 27  28  29  32  34  39  40  41  42  43  44  45  46  47  48  49 0
 3-21G
 ****


