%nproc=1
%NoSave
%Mem=1900MB
#P OB98/GEN NMR

erre ene a

0 1
  C       27.436     122.959      16.876
  O       27.848     124.260      17.263
  P       29.383     124.711      17.150
  C       31.467     123.508      18.054
  O       30.134     123.921      18.326
  C       32.008     122.682      19.217
  O       31.178     121.506      19.367
  C       33.431     122.149      19.053
  O       34.451     123.067      19.415
  C       33.417     120.996      20.048
  O       33.581     121.504      21.384
  C       32.008     120.428      19.866
  N       34.239     116.031      18.502
  C       34.489     116.899      19.508
  N       33.861     118.059      19.794
  C       32.850     118.271      18.936
  C       32.471     117.477      17.867
  C       33.216     116.304      17.659
  N       32.944     115.410      16.647
  N       31.395     118.034      17.203
  C       31.127     119.136      17.871
  N       31.971     119.318      18.931
  O       29.594     126.184      17.118
  O       29.913     123.979      15.831
  H       34.522     121.744      21.483
  H       30.745     124.393      15.532
  H       35.307     116.628      20.171
  H       30.337     119.830      17.623
  H       31.566     120.087      20.809
  H       34.225     120.278      19.879
  H       33.594     121.752      18.044
  H       31.919     123.277      20.134
  H       32.086     124.404      17.931
  H       33.445     114.536      16.654
  H       32.087     115.529      16.125
  H       31.493     122.941      17.121
  P       35.968     122.645      19.086
  C       37.111     120.416      19.841
  O       36.364     121.559      20.196
  O       36.911     123.787      18.940
  O       35.811     121.771      17.754
  H       35.345     120.927      17.865
  H       37.411     119.895      20.755
  H       38.011     120.693      19.289
  H       36.500     119.741      19.237
  H       26.382     122.859      17.028
  H       27.952     122.231      17.466
  H       27.664     122.806      15.842

 3  4  5  6  7  8  9  10  11  12  22  25  29  30  31  32 0
 6-311+G(2d,p)
 ****
 33  36  37 0
 6-311+G(2d,p)
 ****
 1  2  13  14  15  16  17  18  19  20  21  23  24  26 0
 3-21G
 ****
 27  28  34  35  38  39  40  41  42  43  44  45  46  47  48 0
 3-21G
 ****


