%nproc=1
%NoSave
%Mem=1900MB
#P OB98/GEN NMR

erre ene a

0 1
  C     -896.350    -219.377    -297.954
  O     -897.660    -219.682    -297.533
  H     -895.870    -218.755    -297.197
  H     -896.370    -218.831    -298.902
  H     -895.770    -220.302    -298.071
  P     -898.560    -220.565    -298.528
  C     -898.600    -222.614    -296.972
  O     -898.130    -222.082    -298.208
  C     -897.400    -222.922    -296.055
  O     -896.770    -221.668    -295.680
  C     -897.800    -223.643    -294.758
  O     -896.810    -224.604    -294.425
  C     -897.810    -222.526    -293.723
  O     -897.590    -223.022    -292.399
  C     -896.700    -221.604    -294.247
  N     -895.560    -218.301    -290.539
  C     -895.130    -219.545    -290.795
  N     -895.470    -220.359    -291.815
  C     -896.330    -219.728    -292.657
  C     -896.860    -218.467    -292.522
  C     -896.450    -217.734    -291.393
  N     -896.900    -216.459    -291.109
  N     -897.730    -218.194    -293.558
  C     -897.730    -219.282    -294.303
  N     -896.900    -220.238    -293.794
  O     -898.490    -220.182    -299.966
  O     -900.000    -220.456    -297.857
  H     -897.690    -222.283    -291.775
  H     -899.960    -220.570    -296.889
  H     -894.410    -219.958    -290.081
  H     -898.300    -219.417    -295.221
  H     -895.710    -221.925    -293.917
  H     -898.790    -222.015    -293.739
  H     -898.790    -224.133    -294.828
  H     -896.660    -223.511    -296.616
  H     -899.170    -223.532    -297.146
  H     -896.550    -215.995    -290.287
  H     -897.550    -216.014    -291.742
  H     -899.250    -221.883    -296.511
  P     -896.770    -225.980    -295.242
  C     -894.230    -226.439    -295.225
  O     -895.380    -226.093    -296.012
  O     -897.990    -226.287    -296.060
  O     -896.610    -227.067    -294.065
  H     -897.130    -227.870    -294.299
  H     -893.366    -226.482    -295.855
  H     -894.385    -227.393    -294.767
  H     -894.081    -225.699    -294.466

 6  7  8  9  10  11  12  13  14  15  25  28  32  33  34  35 0
 6-311+G(2d,p)
 ****
 36  39  40 0
 6-311+G(2d,p)
 ****
 1  2  3  4  5  16  17  18  19  20  21  22  23  24 0
 3-21G
 ****
 26  27  29  30  31  37  38  41  42  43  44  45  46  47 0
 3-21G
 ****
 48 0
 3-21G
 ****


