%nproc=1
%NoSave
%Mem=1900MB
#P OB98/GEN NMR

erre ene a

0 1
  C     -317.572     111.800     112.582
  O     -317.377     112.419     113.852
  P     -318.535     112.248     114.944
  C     -317.694     110.565     116.780
  O     -317.836     111.909     116.348
  C     -316.821     110.478     118.047
  O     -315.537     111.086     117.764
  C     -317.367     111.224     119.264
  O     -316.719     110.725     120.432
  C     -316.895     112.639     118.991
  O     -316.920     113.438     120.169
  C     -315.500     112.409     118.365
  N     -315.131     113.417     117.351
  C     -314.366     114.518     117.751
  O     -313.979     114.697     118.908
  N     -314.086     115.445     116.784
  C     -314.450     115.363     115.471
  O     -314.243     116.265     114.662
  C     -315.127     114.127     115.075
  C     -315.443     113.234     116.014
  O     -319.251     110.885     114.524
  O     -319.489     113.396     114.999
  H     -316.382     112.965     120.843
  H     -320.113     111.069     114.103
  H     -313.590     116.275     117.077
  H     -315.377     113.998     114.024
  H     -315.968     112.319     115.736
  H     -314.716     112.418     119.134
  H     -317.558     113.116     118.262
  H     -318.450     111.172     119.384
  H     -316.646     109.420     118.290
  H     -317.258     109.960     115.976
  H     -318.686     110.141     116.984
  P     -317.150     109.274     120.974
  C     -316.872     107.358     119.281
  O     -316.222     108.210     120.208
  O     -318.614     108.982     120.965
  O     -316.548     109.257     122.461
  H     -316.996     108.559     122.987
  H     -316.156     107.083     118.496
  H     -317.734     107.846     118.822
  H     -317.197     106.450     119.795
  H     -316.726     111.995     111.957
  H     -318.454     112.197     112.123
  H     -317.683     110.744     112.713

 3  4  5  6  7  8  9  10  11  12  13  23  28  29  30  31  32 0
 6-311+G(2d,p)
 ****
 33  34 0
 6-311+G(2d,p)
 ****
 1  2  14  15  16  17  18  19  20  21  22  24  25  26  27 0
 3-21G
 ****
 35  36  37  38  39  40  41  42  43  44  45 0
 3-21G
 ****


