%nproc=1
%NoSave
%Mem=1900MB
#P OB98/GEN NMR

erre ene a

0 1
  C      -62.738    -287.525    -582.871
  O      -63.102    -288.819    -582.446
  H      -62.947    -287.444    -583.946
  H      -61.666    -287.359    -582.719
  H      -63.313    -286.764    -582.345
  P      -62.866    -289.237    -580.912
  C      -60.330    -289.477    -581.269
  O      -61.353    -288.775    -580.574
  C      -58.948    -288.937    -580.893
  O      -58.762    -287.623    -581.489
  C      -58.728    -288.780    -579.377
  O      -57.452    -289.329    -579.017
  C      -58.708    -287.279    -579.165
  O      -57.992    -286.884    -577.996
  C      -58.107    -286.807    -580.501
  N      -58.322    -285.385    -580.719
  C      -57.364    -284.520    -580.163
  O      -56.409    -284.988    -579.530
  N      -57.541    -283.168    -580.279
  C      -58.607    -282.709    -580.862
  N      -58.727    -281.355    -580.925
  C      -59.664    -283.579    -581.444
  C      -59.443    -284.893    -581.345
  O      -63.168    -290.668    -580.598
  O      -63.747    -288.205    -580.063
  H      -57.034    -287.052    -578.138
  H      -63.934    -288.599    -579.181
  H      -60.521    -283.142    -581.910
  H      -60.162    -285.603    -581.736
  H      -57.031    -287.013    -580.545
  H      -59.739    -286.912    -579.072
  H      -59.504    -289.259    -578.778
  H      -58.178    -289.588    -581.338
  H      -58.001    -280.794    -580.503
  H      -60.501    -289.383    -582.339
  H      -59.534    -280.882    -581.329
  H      -60.379    -290.534    -580.981
  P      -57.485    -290.666    -578.115
  C      -56.653    -290.166    -575.697
  O      -57.760    -290.229    -576.591
  O      -55.960    -291.146    -578.109
  O      -58.402    -291.722    -578.648
  H      -55.869    -291.965    -578.632
  H      -56.993    -289.863    -574.729
  H      -55.940    -289.457    -576.062
  H      -56.195    -291.130    -575.628

 6  7  8  9  10  11  12  13  14  15  16  26  30  31  32  33  35 0
 6-311+G(2d,p)
 ****
 37  38 0
 6-311+G(2d,p)
 ****
 1  2  3  4  5  17  18  19  20  21  22  23  24  25 0
 3-21G
 ****
 27  28  29  34  36  39  40  41  42  43  44  45  46 0
 3-21G
 ****


