%nproc=1
%NoSave
%Mem=1900MB
#P OB98/GEN NMR

erre ene a

0 1
  C     -725.348    -676.114    1452.498
  O     -724.198    -675.927    1451.677
  P     -723.930    -674.695    1450.705
  C     -723.519    -675.867    1448.359
  O     -723.001    -675.182    1449.495
  C     -722.631    -677.043    1447.953
  O     -721.344    -676.560    1447.504
  C     -722.356    -678.013    1449.116
  O     -722.427    -679.386    1448.774
  C     -721.026    -677.521    1449.692
  O     -720.342    -678.449    1450.460
  C     -720.340    -677.044    1448.393
  N     -715.371    -675.757    1448.186
  C     -715.974    -676.981    1447.948
  N     -715.137    -678.011    1447.632
  N     -717.269    -677.194    1448.036
  C     -717.944    -676.096    1448.451
  C     -717.469    -674.848    1448.711
  C     -716.062    -674.602    1448.552
  O     -715.466    -673.548    1448.756
  N     -718.493    -673.983    1449.071
  C     -719.577    -674.731    1449.037
  N     -719.287    -676.041    1448.653
  O     -723.562    -673.419    1451.357
  O     -725.356    -674.478    1449.957
  H     -719.397    -678.117    1450.574
  H     -725.417    -673.518    1449.780
  H     -714.386    -675.629    1448.085
  H     -720.582    -674.400    1449.267
  H     -719.796    -677.856    1447.899
  H     -721.241    -676.635    1450.334
  H     -714.124    -677.953    1447.675
  H     -723.137    -677.916    1449.908
  H     -715.566    -678.944    1447.695
  H     -723.136    -677.570    1447.110
  H     -723.542    -675.111    1447.553
  H     -724.554    -676.181    1448.559
  P     -723.726    -680.313    1448.545
  C     -722.787    -682.365    1449.786
  O     -723.298    -681.832    1448.513
  O     -724.165    -680.040    1446.995
  O     -724.891    -679.996    1449.470
  H     -725.051    -679.626    1446.981
  H     -722.282    -683.321    1449.568
  H     -723.649    -682.534    1450.445
  H     -722.089    -681.667    1450.238
  H     -725.253    -677.030    1453.042
  H     -726.223    -676.154    1451.883
  H     -725.432    -675.298    1453.185

 3  4  5  6  7  8  9  10  11  12  23  26  30  31 0
 6-311+G(2d,p)
 ****
 33  35  36  37  38 0
 6-311+G(2d,p)
 ****
 1  2  13  14  15  16  17  18  19  20  21  22  24  25 0
 3-21G
 ****
 27  28  29  32  34  39  40  41  42  43  44  45  46  47  48  49 0
 3-21G
 ****


