%nproc=1
%NoSave
%Mem=1900MB
#P OB98/GEN NMR

erre ene a

0 1
  C     -400.410     788.337     169.986
  O     -401.477     787.406     169.748
  P     -402.777     787.844     168.934
  C     -404.638     789.641     169.414
  O     -403.716     788.685     169.908
  C     -404.804     790.772     170.439
  O     -403.669     791.665     170.383
  C     -406.060     791.590     170.185
  O     -407.150     791.104     170.966
  C     -405.632     793.000     170.559
  O     -405.699     793.173     171.981
  C     -404.163     793.000     170.083
  N     -403.890     793.273     168.662
  C     -404.131     794.549     168.138
  O     -404.521     795.492     168.812
  N     -403.897     794.694     166.783
  C     -403.441     793.724     165.934
  O     -403.481     793.785     164.713
  C     -402.961     792.491     166.588
  C     -403.221     792.311     167.893
  O     -403.576     786.462     168.755
  O     -402.519     788.524     167.630
  H     -406.641     793.316     172.208
  H     -403.410     786.097     167.867
  H     -404.213     795.573     166.380
  H     -402.463     791.751     165.978
  H     -402.917     791.404     168.376
  H     -403.563     793.706     170.662
  H     -406.295     793.734     170.121
  H     -406.325     791.564     169.116
  H     -404.839     790.327     171.443
  H     -405.596     789.156     169.203
  H     -404.268     790.060     168.452
  P     -408.647     791.402     170.523
  C     -409.875     793.502     169.697
  O     -408.715     793.003     170.312
  O     -409.712     790.839     171.395
  O     -408.717     790.819     169.031
  H     -409.124     789.918     169.055
  H     -409.875     794.592     169.780
  H     -410.782     793.109     170.193
  H     -409.899     793.215     168.641
  H     -399.635     787.856     170.545
  H     -400.783     789.173     170.540
  H     -400.017     788.676     169.050

 3  4  5  6  7  8  9  10  11  12  13  23  28  29  30  31  32 0
 6-311+G(2d,p)
 ****
 33  34 0
 6-311+G(2d,p)
 ****
 1  2  14  15  16  17  18  19  20  21  22  24  25  26  27 0
 3-21G
 ****
 35  36  37  38  39  40  41  42  43  44  45 0
 3-21G
 ****


