%nproc=1
%NoSave
%Mem=1900MB
#P OB98/GEN NMR

erre ene a

0 1
  C     -198.121    -505.409      78.299
  O     -197.399    -505.841      77.157
  P     -196.709    -507.284      77.238
  C     -195.266    -508.201      79.213
  O     -195.511    -507.152      78.295
  C     -193.864    -508.055      79.809
  O     -193.586    -506.660      80.082
  C     -193.657    -508.796      81.121
  O     -193.382    -510.158      80.872
  C     -192.490    -508.026      81.727
  O     -191.237    -508.464      81.155
  C     -192.809    -506.579      81.316
  N     -192.436    -504.156      85.735
  C     -191.527    -504.948      85.083
  N     -190.314    -505.091      85.675
  N     -191.764    -505.563      83.947
  C     -193.019    -505.344      83.482
  C     -194.021    -504.593      84.045
  C     -193.719    -503.877      85.266
  O     -194.467    -503.077      85.833
  N     -195.167    -504.625      83.291
  C     -194.837    -505.373      82.253
  N     -193.543    -505.828      82.312
  O     -195.970    -507.413      75.822
  O     -197.639    -508.426      77.500
  H     -191.242    -508.259      80.200
  H     -196.503    -507.945      75.201
  H     -192.192    -503.692      86.591
  H     -195.497    -505.609      81.431
  H     -191.906    -506.010      81.087
  H     -192.414    -508.178      82.805
  H     -190.060    -504.677      86.558
  H     -194.544    -508.687      81.764
  H     -189.634    -505.683      85.209
  H     -193.145    -508.388      79.052
  H     -195.338    -509.157      78.693
  H     -196.033    -508.177      80.005
  P     -193.534    -511.182      82.103
  C     -192.628    -511.232      84.534
  O     -192.473    -510.733      83.223
  O     -192.926    -512.548      81.530
  O     -194.931    -511.367      82.586
  H     -193.425    -513.301      81.886
  H     -191.634    -511.304      84.999
  H     -193.090    -512.233      84.545
  H     -193.244    -510.551      85.119
  H     -198.529    -504.437      78.116
  H     -197.463    -505.367      79.142
  H     -198.915    -506.097      78.500

 3  4  5  6  7  8  9  10  11  12  23  26  30  31 0
 6-311+G(2d,p)
 ****
 33  35  36  37  38 0
 6-311+G(2d,p)
 ****
 1  2  13  14  15  16  17  18  19  20  21  22  24  25 0
 3-21G
 ****
 27  28  29  32  34  39  40  41  42  43  44  45  46  47  48  49 0
 3-21G
 ****


