%nproc=1
%NoSave
%Mem=1900MB
#P OB98/GEN NMR

erre ene a

0 1
  C       58.011     -86.936    -254.152
  O       59.261     -86.460    -253.638
  P       60.306     -87.543    -253.070
  C       60.774     -88.935    -255.215
  O       61.269     -88.004    -254.264
  C       61.899     -89.846    -255.712
  O       61.396     -90.952    -256.486
  C       62.895     -89.140    -256.628
  O       63.865     -88.407    -255.883
  C       63.552     -90.323    -257.322
  O       64.546     -90.911    -256.459
  C       62.374     -91.286    -257.499
  N       60.343     -93.954    -261.373
  C       60.931     -94.347    -260.222
  N       61.459     -93.581    -259.249
  C       61.333     -92.277    -259.548
  C       60.764     -91.728    -260.691
  C       60.246     -92.633    -261.633
  N       59.650     -92.230    -262.806
  N       60.819     -90.348    -260.656
  C       61.404     -90.067    -259.507
  N       61.739     -91.198    -258.806
  O       59.385     -88.828    -252.818
  O       60.996     -87.115    -251.818
  H       64.096     -91.159    -255.630
  H       59.704     -89.319    -252.041
  H       60.977     -95.417    -260.056
  H       61.599     -89.070    -259.141
  H       62.658     -92.339    -257.351
  H       64.063     -90.040    -258.247
  H       62.378     -88.510    -257.361
  H       62.431     -90.244    -254.836
  H       60.315     -88.409    -256.058
  H       59.282     -92.934    -263.422
  H       59.555     -91.239    -262.995
  H       59.973     -89.528    -254.753
  P       64.038     -86.853    -256.234
  C       61.627     -86.002    -255.781
  O       62.967     -86.078    -255.329
  O       63.449     -86.750    -257.720
  O       65.446     -86.361    -256.155
  H       63.900     -86.039    -258.212
  H       60.995     -85.724    -254.932
  H       61.286     -86.969    -256.169
  H       61.539     -85.236    -256.551
  H       57.426     -86.107    -254.491
  H       57.482     -87.454    -253.380
  H       58.192     -87.603    -254.969

 3  4  5  6  7  8  9  10  11  12  22  25  29  30  31  32 0
 6-311+G(2d,p)
 ****
 33  36  37 0
 6-311+G(2d,p)
 ****
 1  2  13  14  15  16  17  18  19  20  21  23  24  26 0
 3-21G
 ****
 27  28  34  35  38  39  40  41  42  43  44  45  46  47  48 0
 3-21G
 ****


