%nproc=1
%NoSave
%Mem=1900MB
#P OB98/GEN NMR

erre ene a

0 1
  C     -343.647     145.263    -286.405
  O     -344.663     144.549    -285.687
  P     -345.268     145.279    -284.388
  C     -347.587     144.124    -284.570
  O     -346.422     144.351    -283.787
  C     -348.226     142.789    -284.209
  O     -347.538     141.675    -284.830
  C     -348.189     142.489    -282.710
  O     -349.155     143.254    -282.014
  C     -348.455     140.980    -282.707
  O     -349.853     140.715    -282.876
  C     -347.684     140.523    -283.961
  N     -344.885     136.241    -283.796
  C     -346.177     136.465    -284.137
  N     -346.851     137.633    -284.151
  C     -346.048     138.650    -283.781
  C     -344.711     138.574    -283.411
  C     -344.123     137.301    -283.429
  N     -342.815     137.069    -283.062
  N     -344.222     139.825    -283.093
  C     -345.253     140.635    -283.246
  N     -346.375     139.974    -283.666
  O     -346.060     146.529    -285.005
  O     -344.225     145.710    -283.410
  H     -350.010     139.780    -282.631
  H     -345.583     147.360    -284.806
  H     -346.741     135.583    -284.431
  H     -345.236     141.708    -283.052
  H     -348.230     139.756    -284.526
  H     -348.132     140.494    -281.788
  H     -347.184     142.689    -282.309
  H     -349.267     142.791    -284.553
  H     -347.334     144.127    -285.640
  H     -342.493     136.111    -283.029
  H     -342.257     137.833    -282.706
  H     -348.289     144.952    -284.417
  P     -348.627     144.437    -281.065
  C     -350.697     145.803    -281.724
  O     -349.963     145.224    -280.655
  O     -347.944     145.419    -282.119
  O     -347.762     143.994    -279.933
  H     -348.510     145.560    -282.908
  H     -351.598     146.278    -281.311
  H     -351.001     145.039    -282.435
  H     -350.092     146.570    -282.212
  H     -343.326     144.680    -287.243
  H     -342.815     145.446    -285.758
  H     -344.043     146.195    -286.750

 3  4  5  6  7  8  9  10  11  12  22  25  29  30  31  32 0
 6-311+G(2d,p)
 ****
 33  36  37 0
 6-311+G(2d,p)
 ****
 1  2  13  14  15  16  17  18  19  20  21  23  24  26 0
 3-21G
 ****
 27  28  34  35  38  39  40  41  42  43  44  45  46  47  48 0
 3-21G
 ****


