%nproc=1
%NoSave
%Mem=1900MB
#P OB98/GEN NMR

erre ene a

0 1
  C        4.716     -81.648     -55.155
  O        3.666     -82.573     -55.343
  H        5.599     -82.004     -55.691
  H        4.962     -81.560     -54.093
  H        4.431     -80.671     -55.553
  P        2.301     -82.291     -54.551
  C        1.289     -81.326     -56.741
  O        1.527     -81.139     -55.352
  C       -0.169     -81.008     -57.056
  O       -1.032     -81.972     -56.408
  C       -0.632     -79.648     -56.551
  O       -0.218     -78.582     -57.388
  C       -2.138     -79.837     -56.555
  O       -2.701     -79.582     -57.850
  C       -2.293     -81.318     -56.162
  N       -2.730     -81.467     -54.777
  C       -4.039     -81.076     -54.512
  O       -4.800     -80.633     -55.371
  N       -4.438     -81.175     -53.208
  C       -3.659     -81.567     -52.160
  O       -4.064     -81.580     -51.005
  C       -2.279     -81.952     -52.497
  C       -1.881     -81.881     -53.770
  O        2.797     -81.561     -53.217
  O        1.484     -83.505     -54.254
  H        2.727     -82.172     -52.461
  H       -2.667     -78.612     -57.971
  H       -5.385     -80.899     -52.995
  H       -1.632     -82.267     -51.689
  H       -0.866     -82.148     -54.043
  H       -3.032     -81.810     -56.807
  H       -2.618     -79.157     -55.856
  H       -0.295     -79.493     -55.518
  H       -0.317     -81.087     -58.141
  H        1.492     -82.366     -57.013
  H        1.964     -80.677     -57.308
  P        0.140     -77.181     -56.693
  C        2.567     -78.006     -56.099
  O        1.319     -77.498     -55.655
  O       -1.158     -76.965     -55.783
  O        0.414     -76.093     -57.673
  H       -1.572     -77.811     -55.538
  H        3.213     -78.149     -55.258
  H        3.014     -77.310     -56.778
  H        2.415     -78.941     -56.596

 6  7  8  9  10  11  12  13  14  15  16  27  31  32  33  34  35 0
 6-311+G(2d,p)
 ****
 36  37 0
 6-311+G(2d,p)
 ****
 1  2  3  4  5  17  18  19  20  21  22  23  24  25 0
 3-21G
 ****
 26  28  29  30  38  39  40  41  42  43  44  45 0
 3-21G
 ****


