%nproc=1
%NoSave
%Mem=1900MB
#P OB98/GEN NMR

erre ene a

0 1
  C       71.251     307.878     -41.028
  O       70.803     308.429     -42.251
  H       72.304     307.604     -41.131
  H       70.674     306.980     -40.791
  H       71.152     308.610     -40.221
  P       69.328     309.064     -42.259
  C       70.066     311.414     -41.353
  O       69.344     310.214     -41.144
  C       69.393     312.581     -40.625
  O       69.386     312.299     -39.204
  C       70.098     313.923     -40.834
  O       69.107     314.952     -40.879
  C       70.926     314.081     -39.569
  O       71.245     315.444     -39.303
  C       70.019     313.406     -38.529
  N       70.756     312.965     -37.347
  C       70.807     313.855     -36.270
  O       70.258     314.955     -36.349
  N       71.509     313.500     -35.148
  C       72.163     312.379     -35.125
  N       72.861     312.099     -33.993
  C       72.176     311.431     -36.254
  C       71.452     311.778     -37.318
  O       68.466     307.894     -41.589
  O       68.847     309.489     -43.607
  H       71.721     315.811     -40.078
  H       68.886     307.503     -40.805
  H       72.744     310.515     -36.192
  H       71.398     311.137     -38.188
  H       69.228     314.095     -38.204
  H       71.869     313.529     -39.666
  H       70.700     313.948     -41.741
  H       68.346     312.633     -40.945
  H       72.844     312.787     -33.252
  H       70.126     311.641     -42.423
  H       73.449     311.285     -33.884
  H       71.084     311.269     -40.978
  P       69.369     316.261     -41.761
  C       67.504     316.053     -43.541
  O       68.899     315.986     -43.269
  O       70.719     316.880     -41.619
  O       68.238     317.273     -41.233
  H       68.640     318.162     -41.166
  H       67.333     315.850     -44.578
  H       67.141     317.031     -43.304
  H       66.989     315.328     -42.946

 6  7  8  9  10  11  12  13  14  15  16  26  30  31  32  33  35 0
 6-311+G(2d,p)
 ****
 37  38 0
 6-311+G(2d,p)
 ****
 1  2  3  4  5  17  18  19  20  21  22  23  24  25 0
 3-21G
 ****
 27  28  29  34  36  39  40  41  42  43  44  45  46 0
 3-21G
 ****


