%nproc=1
%NoSave
%Mem=1900MB
#P OB98/GEN NMR

erre ene a

0 1
  C      128.969     178.339    -100.349
  O      128.256     178.248     -99.118
  P      126.849     178.943     -98.830
  C      127.669     180.250     -96.710
  O      126.778     179.297     -97.271
  C      127.485     180.429     -95.194
  O      126.074     180.601     -94.896
  C      127.936     179.176     -94.445
  O      129.303     178.985     -94.137
  C      127.011     179.093     -93.239
  O      127.572     179.703     -92.076
  C      125.768     179.860     -93.696
  N      120.942     178.693     -92.469
  C      121.773     179.648     -91.922
  N      121.281     180.352     -90.881
  N      122.986     179.878     -92.345
  C      123.386     179.045     -93.332
  C      122.660     178.049     -93.942
  C      121.296     177.840     -93.505
  O      120.512     177.015     -93.963
  N      123.404     177.395     -94.891
  C      124.583     177.977     -94.838
  N      124.621     178.993     -93.910
  O      125.661     178.265     -99.423
  O      126.994     180.384     -99.541
  H      127.708     180.648     -92.268
  H      126.102     180.627     -99.862
  H      120.006     178.573     -92.119
  H      125.437     177.709     -95.449
  H      125.461     180.599     -92.946
  H      126.813     178.046     -92.976
  H      120.403     180.142     -90.432
  H      127.671     178.315     -95.074
  H      121.957     180.896     -90.340
  H      127.976     181.342     -94.848
  H      127.493     181.195     -97.231
  H      128.701     179.967     -96.923
  P      130.454     178.553     -95.163
  C      132.125     177.190     -93.780
  O      131.829     178.452     -94.349
  O      130.677     179.856     -96.065
  O      130.132     177.367     -96.011
  H      131.164     179.627     -96.877
  H      132.894     177.317     -93.014
  H      132.503     176.519     -94.556
  H      131.235     176.749     -93.319
  H      129.880     177.783    -100.275
  H      129.193     179.365    -100.556
  H      128.369     177.938    -101.139

 3  4  5  6  7  8  9  10  11  12  23  26  30  31 0
 6-311+G(2d,p)
 ****
 33  35  36  37  38 0
 6-311+G(2d,p)
 ****
 1  2  13  14  15  16  17  18  19  20  21  22  24  25 0
 3-21G
 ****
 27  28  29  32  34  39  40  41  42  43  44  45  46  47  48  49 0
 3-21G
 ****


