%nproc=1
%NoSave
%Mem=1900MB
#P OB98/GEN NMR

erre ene a

0 1
  C       46.288     300.825     -16.458
  O       47.082     300.520     -17.586
  H       46.940     300.956     -15.591
  H       45.605     299.995     -16.260
  H       45.719     301.746     -16.616
  P       46.400     300.675     -19.029
  C       44.760     302.625     -19.521
  O       46.094     302.240     -19.226
  C       44.674     304.138     -19.724
  O       45.126     304.797     -18.501
  C       45.535     304.666     -20.884
  O       44.837     305.745     -21.523
  C       46.744     305.242     -20.170
  O       47.412     306.230     -20.947
  C       46.093     305.785     -18.902
  N       47.347     309.009     -15.267
  C       46.196     308.913     -16.023
  N       45.250     309.856     -15.827
  N       45.989     307.970     -16.904
  C       47.006     307.079     -16.986
  C       48.195     307.066     -16.300
  C       48.422     308.125     -15.339
  O       49.428     308.278     -14.656
  N       48.991     306.028     -16.717
  C       48.291     305.430     -17.666
  N       47.081     306.033     -17.867
  O       44.951     300.033     -18.801
  O       47.128     300.020     -20.154
  H       46.787     306.965     -21.111
  H       44.958     299.096     -19.072
  H       47.464     309.765     -14.613
  H       48.622     304.580     -18.246
  H       45.566     306.733     -19.073
  H       47.457     304.442     -19.937
  H       45.324     310.595     -15.144
  H       45.798     303.905     -21.625
  H       44.384     309.774     -16.346
  H       43.622     304.414     -19.866
  H       44.110     302.340     -18.687
  H       44.424     302.101     -20.422
  P       43.963     305.410     -22.824
  C       41.994     303.801     -23.384
  O       42.712     304.507     -22.382
  O       44.890     304.382     -23.629
  O       43.626     306.606     -23.650
  H       44.775     304.514     -24.588
  H       41.196     303.251     -22.930
  H       42.654     303.124     -23.886
  H       41.591     304.496     -24.091

 6  7  8  9  10  11  12  13  14  15  26  29  33  34 0
 6-311+G(2d,p)
 ****
 36  38  39  40  41 0
 6-311+G(2d,p)
 ****
 1  2  3  4  5  16  17  18  19  20  21  22  23  24  25 0
 3-21G
 ****
 27  28  30  31  32  35  37  42  43  44  45  46  47 0
 3-21G
 ****
 48  49 0
 3-21G
 ****


