%nproc=1
%NoSave
%Mem=1900MB
#P OB98/GEN NMR

erre ene a

0 1
  C      532.869    -827.170      18.579
  O      533.643    -826.481      17.602
  P      534.961    -827.064      16.914
  C      536.591    -826.497      18.895
  O      535.977    -827.478      18.079
  C      537.471    -827.097      19.991
  O      538.658    -827.693      19.405
  C      537.982    -825.987      20.943
  O      537.155    -825.538      22.004
  C      539.368    -826.451      21.370
  O      539.340    -827.158      22.609
  C      539.805    -827.364      20.224
  N      544.753    -826.118      19.914
  C      544.048    -826.614      20.986
  N      544.734    -826.757      22.143
  N      542.787    -826.942      20.935
  C      542.194    -826.661      19.746
  C      542.781    -826.138      18.611
  C      544.204    -825.838      18.657
  O      544.878    -825.406      17.733
  N      541.859    -825.969      17.599
  C      540.730    -826.373      18.137
  N      540.869    -826.790      19.433
  O      535.520    -826.250      15.797
  O      534.476    -828.474      16.306
  H      538.734    -827.917      22.508
  H      535.003    -828.622      15.485
  H      545.735    -825.906      20.003
  H      539.771    -826.366      17.633
  H      540.179    -828.322      20.624
  H      540.038    -825.588      21.517
  H      545.675    -826.441      22.272
  H      538.150    -825.084      20.330
  H      544.184    -826.932      22.976
  H      536.961    -827.899      20.518
  H      535.780    -825.902      19.332
  H      537.183    -825.814      18.272
  P      536.422    -824.113      22.086
  C      537.641    -823.295      24.183
  O      537.412    -823.082      22.793
  O      535.287    -824.343      23.191
  O      535.826    -823.631      20.800
  H      534.614    -823.628      23.142
  H      538.062    -822.376      24.619
  H      538.352    -824.090      24.315
  H      536.697    -823.538      24.694
  H      532.042    -826.559      18.875
  H      533.479    -827.382      19.432
  H      532.505    -828.087      18.164

 3  4  5  6  7  8  9  10  11  12  23  26  30  31 0
 6-311+G(2d,p)
 ****
 33  35  36  37  38 0
 6-311+G(2d,p)
 ****
 1  2  13  14  15  16  17  18  19  20  21  22  24  25 0
 3-21G
 ****
 27  28  29  32  34  39  40  41  42  43  44  45  46  47  48  49 0
 3-21G
 ****


