%nproc=1
%NoSave
%Mem=1900MB
#P OB98/GEN NMR

erre ene a

0 1
  C     -130.657     196.029     -26.163
  O     -129.914     195.828     -27.351
  H     -130.060     195.680     -25.316
  H     -131.592     195.466     -26.188
  H     -130.866     197.093     -26.029
  P     -130.674     195.999     -28.755
  C     -131.125     193.463     -28.885
  O     -131.703     194.765     -28.836
  C     -131.725     192.634     -30.020
  O     -133.122     192.363     -29.773
  C     -131.697     193.323     -31.376
  O     -130.409     193.519     -31.911
  C     -132.715     192.510     -32.161
  O     -132.157     191.310     -32.694
  C     -133.750     192.171     -31.061
  N     -134.972     192.958     -31.187
  C     -135.616     192.890     -32.416
  O     -135.195     192.234     -33.369
  N     -136.757     193.637     -32.533
  C     -137.276     194.460     -31.578
  O     -138.294     195.119     -31.753
  C     -136.529     194.521     -30.312
  C     -135.428     193.777     -30.173
  O     -129.789     196.131     -29.959
  O     -131.634     197.256     -28.521
  H     -131.524     191.574     -33.388
  H     -131.971     197.612     -29.379
  H     -137.248     193.588     -33.414
  H     -136.905     195.174     -29.536
  H     -134.861     193.804     -29.247
  H     -134.026     191.109     -31.114
  H     -133.133     193.073     -32.998
  H     -132.127     194.327     -31.260
  H     -131.202     191.673     -30.052
  H     -131.333     192.969     -27.930
  H     -130.041     193.549     -29.012
  P     -130.011     194.759     -32.831
  C     -130.052     193.337     -35.026
  O     -130.531     194.476     -34.321
  O     -128.630     195.303     -32.662
  O     -131.047     195.889     -32.323
  H     -130.585     196.749     -32.385
  H     -130.500     193.304     -35.997
  H     -130.307     192.450     -34.485
  H     -128.989     193.401     -35.126

 6  7  8  9  10  11  12  13  14  15  16  26  31  32  33  34  35 0
 6-311+G(2d,p)
 ****
 36  37 0
 6-311+G(2d,p)
 ****
 1  2  3  4  5  17  18  19  20  21  22  23  24  25 0
 3-21G
 ****
 27  28  29  30  38  39  40  41  42  43  44  45 0
 3-21G
 ****


