%nproc=1
%NoSave
%Mem=1900MB
#P OB98/GEN NMR

erre ene a

0 1
  C     -138.463     141.805     491.283
  O     -138.370     140.467     490.837
  H     -137.478     142.272     491.203
  H     -138.784     141.844     492.329
  H     -139.165     142.367     490.657
  P     -139.661     139.527     490.961
  C     -140.748     138.131     492.851
  O     -139.783     139.119     492.507
  C     -140.087     136.960     493.595
  O     -139.302     136.181     492.647
  C     -139.139     137.402     494.722
  O     -139.151     136.370     495.725
  C     -137.802     137.420     494.003
  O     -136.724     137.475     494.905
  C     -137.936     136.162     493.132
  N     -136.970     136.117     492.049
  C     -135.817     135.360     492.273
  O     -135.654     134.790     493.353
  N     -134.861     135.305     491.290
  C     -135.015     135.997     490.205
  N     -134.019     135.909     489.271
  C     -136.187     136.857     489.947
  C     -137.118     136.868     490.896
  O     -139.728     138.379     490.005
  O     -140.891     140.532     490.753
  H     -136.729     136.688     495.503
  H     -141.271     140.406     489.862
  H     -136.254     137.431     489.037
  H     -138.019     137.469     490.799
  H     -137.824     135.253     493.740
  H     -137.719     138.308     493.368
  H     -139.411     138.358     495.167
  H     -140.873     136.300     493.971
  H     -133.229     135.312     489.495
  H     -141.199     137.770     491.920
  H     -134.020     136.412     488.397
  H     -141.532     138.573     493.479
  P     -140.225     136.337     496.913
  C     -141.229     137.951     498.664
  O     -140.230     137.752     497.673
  O     -140.075     135.158     497.834
  O     -141.655     136.297     496.194
  H     -142.286     135.802     496.756
  H     -141.120     138.927     499.089
  H     -141.122     137.214     499.432
  H     -142.197     137.862     498.217

 6  7  8  9  10  11  12  13  14  15  16  26  30  31  32  33  35 0
 6-311+G(2d,p)
 ****
 37  38 0
 6-311+G(2d,p)
 ****
 1  2  3  4  5  17  18  19  20  21  22  23  24  25 0
 3-21G
 ****
 27  28  29  34  36  39  40  41  42  43  44  45  46 0
 3-21G
 ****


