%nproc=1
%NoSave
%Mem=1900MB
#P OB98/GEN NMR

erre ene a

0 1
  C     -366.757    -344.045     194.244
  O     -366.893    -342.897     193.425
  H     -367.637    -344.163     194.881
  H     -366.667    -344.924     193.600
  H     -365.857    -343.958     194.860
  P     -367.152    -341.509     194.186
  C     -369.491    -340.406     193.993
  O     -368.716    -341.467     194.542
  C     -369.888    -340.731     192.557
  O     -370.460    -342.056     192.485
  C     -370.946    -339.810     191.964
  O     -370.390    -338.574     191.536
  C     -371.423    -340.651     190.785
  O     -370.503    -340.513     189.687
  C     -371.361    -342.074     191.351
  N     -373.754    -345.690     194.114
  C     -372.446    -345.449     193.898
  N     -371.881    -344.479     193.147
  C     -372.819    -343.685     192.593
  C     -374.198    -343.810     192.729
  C     -374.667    -344.878     193.531
  N     -376.011    -345.124     193.728
  N     -374.849    -342.817     192.026
  C     -373.884    -342.108     191.479
  N     -372.644    -342.595     191.785
  O     -367.002    -340.416     193.023
  O     -366.228    -341.220     195.327
  H     -369.610    -340.473     190.068
  H     -366.591    -339.612     193.398
  H     -371.750    -346.115     194.395
  H     -374.042    -341.228     190.868
  H     -370.938    -342.779     190.618
  H     -372.407    -340.359     190.423
  H     -371.782    -339.659     192.662
  H     -368.976    -340.723     191.950
  H     -368.901    -339.481     193.999
  H     -376.274    -345.766     194.455
  H     -376.673    -344.507     193.285
  H     -370.381    -340.267     194.614
  P     -371.398    -337.327     191.363
  C     -371.452    -336.440     188.927
  O     -371.936    -337.411     189.860
  O     -370.414    -336.065     191.347
  O     -372.442    -337.210     192.433
  H     -370.900    -335.267     191.646
  H     -371.893    -336.616     187.968
  H     -370.388    -336.519     188.850
  H     -371.713    -335.459     189.265

 6  7  8  9  10  11  12  13  14  15  25  28  32  33  34  35 0
 6-311+G(2d,p)
 ****
 36  39  40 0
 6-311+G(2d,p)
 ****
 1  2  3  4  5  16  17  18  19  20  21  22  23  24 0
 3-21G
 ****
 26  27  29  30  31  37  38  41  42  43  44  45  46  47  48 0
 3-21G
 ****


