%nproc=1
%NoSave
%Mem=1900MB
#P OB98/GEN NMR

erre ene a

0 1
  C      192.324     640.781     328.528
  O      190.923     640.848     328.513
  P      190.133     641.171     327.159
  C      190.244     643.000     325.341
  O      190.778     642.516     326.574
  C      190.285     644.528     325.309
  O      191.653     645.009     325.238
  C      189.603     645.141     324.083
  O      188.210     644.984     323.969
  C      190.149     646.558     324.136
  O      189.407     647.359     325.069
  C      191.593     646.328     324.645
  N      192.576     646.485     323.563
  C      193.062     647.761     323.362
  O      192.746     648.732     324.038
  N      193.959     647.905     322.327
  C      194.355     646.917     321.471
  O      195.120     647.126     320.528
  C      193.767     645.588     321.710
  C      192.913     645.418     322.727
  O      188.648     641.206     327.271
  O      190.684     640.060     326.133
  H      189.688     647.105     325.963
  H      191.649     640.089     325.981
  H      194.334     648.832     322.165
  H      194.067     644.775     321.048
  H      192.479     644.449     322.934
  H      191.841     647.050     325.427
  H      190.063     647.061     323.161
  H      190.026     644.664     323.191
  H      189.839     644.909     326.256
  H      189.185     642.664     325.264
  H      190.791     642.562     324.506
  P      187.381     645.397     322.656
  C      186.664     647.624     321.534
  O      187.140     646.978     322.705
  O      186.203     644.534     322.303
  O      188.496     645.258     321.520
  H      188.060     645.007     320.684
  H      186.603     648.711     321.724
  H      185.669     647.265     321.277
  H      187.361     647.453     320.702
  H      192.660     640.556     329.519
  H      192.729     641.722     328.219
  H      192.652     640.014     327.857

 3  4  5  6  7  8  9  10  11  12  13  23  28  29  30  31  32 0
 6-311+G(2d,p)
 ****
 33  34 0
 6-311+G(2d,p)
 ****
 1  2  14  15  16  17  18  19  20  21  22  24  25  26  27 0
 3-21G
 ****
 35  36  37  38  39  40  41  42  43  44  45 0
 3-21G
 ****


