%nproc=1
%NoSave
%Mem=1900MB
#P OB98/GEN NMR

erre ene a

0 1
  C     -233.755     102.514     -36.191
  O     -234.405     102.261     -37.441
  P     -233.665     101.273     -38.469
  C     -235.746     100.056     -39.462
  O     -234.665     100.957     -39.681
  C     -237.083     100.755     -39.724
  O     -237.282     101.853     -38.813
  C     -237.173     101.366     -41.110
  O     -237.441     100.366     -42.077
  C     -238.304     102.380     -40.942
  O     -239.586     101.794     -41.228
  C     -238.200     102.766     -39.447
  N     -237.789     104.151     -39.252
  C     -238.812     105.100     -39.279
  O     -239.980     104.757     -39.481
  N     -238.483     106.423     -39.102
  C     -237.241     106.765     -38.943
  N     -236.975     108.091     -38.778
  C     -236.127     105.791     -38.934
  C     -236.466     104.513     -39.099
  O     -233.608      99.888     -37.665
  O     -232.303     101.734     -38.876
  H     -239.633     101.717     -42.203
  H     -232.800      99.394     -37.906
  H     -235.105     106.123     -38.803
  H     -235.717     103.729     -39.106
  H     -239.170     102.628     -38.950
  H     -238.182     103.229     -41.618
  H     -236.240     101.892     -41.353
  H     -237.893     100.024     -39.579
  H     -237.760     108.727     -38.788
  H     -235.720      99.679     -38.435
  H     -236.048     108.463     -38.651
  H     -235.620      99.186     -40.119
  P     -236.316     100.075     -43.185
  C     -236.773      97.669     -43.981
  O     -237.003      99.045     -44.211
  O     -235.306      99.115     -42.382
  O     -235.616     101.247     -43.780
  H     -234.514      98.939     -42.920
  H     -237.448      97.089     -44.608
  H     -236.953      97.419     -42.930
  H     -235.739      97.418     -44.251
  H     -234.352     103.183     -35.607
  H     -232.797     102.955     -36.370
  H     -233.630     101.593     -35.661

 3  4  5  6  7  8  9  10  11  12  13  21  23  27  28  29  30  32 0
 6-311+G(2d,p)
 ****
 34  35 0
 6-311+G(2d,p)
 ****
 1  2  14  15  16  17  18  19  20  22  24  25  26 0
 3-21G
 ****
 31  33  36  37  38  39  40  41  42  43  44  45  46 0
 3-21G
 ****


