%nproc=1
%NoSave
%Mem=1900MB
#P OB98/GEN NMR

erre ene a

0 1
  C      238.296     134.571    -314.894
  O      239.229     134.241    -315.903
  H      237.759     135.474    -315.195
  H      238.810     134.766    -313.949
  H      237.573     133.758    -314.770
  P      240.149     132.954    -315.635
  C      242.036     134.471    -314.713
  O      241.131     133.406    -314.449
  C      242.646     134.992    -313.415
  O      241.643     135.668    -312.632
  C      243.229     133.913    -312.513
  O      244.547     133.581    -312.926
  C      243.231     134.625    -311.169
  O      244.383     135.488    -311.080
  C      241.946     135.467    -311.227
  N      239.115     135.325    -306.950
  C      240.314     135.886    -307.208
  N      241.035     135.839    -308.351
  C      240.387     135.131    -309.293
  C      239.158     134.498    -309.167
  C      238.506     134.621    -307.932
  N      237.280     134.047    -307.667
  N      238.811     133.863    -310.344
  C      239.788     134.152    -311.179
  N      240.783     134.887    -310.580
  O      240.801     132.362    -316.840
  O      239.117     131.991    -314.880
  H      244.456     135.763    -310.146
  H      238.570     132.498    -314.253
  H      240.760     136.443    -306.391
  H      239.812     133.878    -312.226
  H      242.090     136.458    -310.778
  H      243.288     133.931    -310.327
  H      242.577     133.034    -312.454
  H      243.412     135.741    -313.677
  H      241.521     135.286    -315.234
  H      236.980     134.020    -306.705
  H      236.894     133.415    -308.357
  H      242.821     134.084    -315.372
  P      245.043     132.056    -312.973
  C      246.492     132.373    -310.870
  O      245.391     131.687    -311.451
  O      246.118     131.784    -313.965
  O      243.711     131.216    -313.253
  H      243.940     130.320    -313.558
  H      246.625     132.044    -309.860
  H      246.302     133.426    -310.880
  H      247.378     132.165    -311.432

 6  7  8  9  10  11  12  13  14  15  25  28  32  33  34  35 0
 6-311+G(2d,p)
 ****
 36  39  40 0
 6-311+G(2d,p)
 ****
 1  2  3  4  5  16  17  18  19  20  21  22  23  24 0
 3-21G
 ****
 26  27  29  30  31  37  38  41  42  43  44  45  46  47 0
 3-21G
 ****
 48 0
 3-21G
 ****


