%nproc=1
%NoSave
%Mem=1900MB
#P OB98/GEN NMR

erre ene a

0 1
  C     -405.739     206.174     338.355
  O     -406.051     205.594     339.627
  P     -405.546     206.417     340.912
  C     -403.779     204.704     341.741
  O     -404.015     205.995     341.200
  C     -402.323     204.530     342.176
  O     -402.111     203.230     342.804
  C     -401.314     204.647     341.025
  O     -400.130     205.261     341.555
  C     -401.005     203.190     340.703
  O     -399.795     203.057     339.968
  C     -400.990     202.607     342.117
  N     -398.449     198.279     341.585
  C     -398.037     199.583     341.377
  N     -396.738     199.760     341.035
  N     -398.819     200.615     341.509
  C     -400.084     200.287     341.901
  C     -400.599     199.038     342.154
  C     -399.726     197.890     341.974
  O     -400.033     196.714     342.144
  N     -401.919     199.111     342.565
  C     -402.192     200.399     342.486
  N     -401.109     201.156     342.154
  O     -406.358     205.746     342.118
  O     -405.798     207.890     340.824
  H     -399.681     202.105     339.762
  H     -407.122     206.311     342.363
  H     -397.798     197.513     341.458
  H     -403.156     200.842     342.701
  H     -400.073     202.854     342.656
  H     -401.820     202.753     340.110
  H     -396.063     199.012     340.967
  H     -401.678     205.198     340.149
  H     -396.406     200.704     340.912
  H     -402.098     205.294     342.935
  H     -404.016     203.934     340.993
  H     -404.471     204.531     342.580
  P     -399.581     206.573     340.816
  C     -398.337     205.309     338.914
  O     -399.383     206.200     339.272
  O     -398.067     206.687     341.362
  O     -400.346     207.824     341.094
  H     -397.852     207.631     341.512
  H     -398.601     204.799     337.985
  H     -398.165     204.555     339.697
  H     -397.408     205.879     338.764
  H     -406.119     205.548     337.575
  H     -404.678     206.264     338.255
  H     -406.187     207.143     338.285

 3  4  5  6  7  8  9  10  11  12  23  26  30  31 0
 6-311+G(2d,p)
 ****
 33  35  36  37  38 0
 6-311+G(2d,p)
 ****
 1  2  13  14  15  16  17  18  19  20  21  22  24  25 0
 3-21G
 ****
 27  28  29  32  34  39  40  41  42  43  44  45  46  47  48  49 0
 3-21G
 ****


