%nproc=1
%NoSave
%Mem=1900MB
#P OB98/GEN NMR

erre ene a

0 1
  C     -225.792     111.979    -216.232
  O     -227.125     112.442    -216.170
  H     -225.738     111.065    -216.829
  H     -225.173     112.745    -216.703
  H     -225.411     111.788    -215.224
  P     -228.210     111.443    -215.541
  C     -228.742     112.996    -213.534
  O     -229.240     112.342    -214.692
  C     -229.559     114.255    -213.257
  O     -229.195     115.263    -214.234
  C     -231.084     114.059    -213.319
  O     -231.683     114.435    -212.074
  C     -231.549     115.030    -214.393
  O     -232.766     115.695    -214.060
  C     -230.386     116.010    -214.509
  N     -233.114     118.482    -218.033
  C     -233.284     118.354    -216.699
  N     -232.465     117.771    -215.800
  C     -231.353     117.311    -216.401
  C     -231.025     117.392    -217.744
  C     -231.976     117.995    -218.584
  N     -231.828     118.077    -219.952
  N     -229.799     116.800    -217.986
  C     -229.417     116.332    -216.814
  N     -230.330     116.601    -215.831
  O     -227.381     110.660    -214.416
  O     -228.844     110.505    -216.513
  H     -232.597     116.196    -213.240
  H     -227.544     109.701    -214.496
  H     -234.208     118.767    -216.302
  H     -228.515     115.758    -216.632
  H     -230.455     116.820    -213.773
  H     -231.699     114.480    -215.329
  H     -231.366     113.028    -213.570
  H     -229.266     114.645    -212.273
  H     -227.695     113.280    -213.695
  H     -232.610     118.416    -220.488
  H     -231.038     117.617    -220.378
  H     -228.789     112.306    -212.685
  P     -233.211     113.981    -211.846
  C     -232.765     112.167    -210.032
  O     -233.323     113.436    -210.339
  O     -233.324     112.651    -212.729
  O     -234.215     115.008    -212.245
  H     -234.248     112.517    -213.013
  H     -232.921     111.950    -208.996
  H     -231.715     112.179    -210.240
  H     -233.238     111.416    -210.629

 6  7  8  9  10  11  12  13  14  15  25  28  32  33  34  35 0
 6-311+G(2d,p)
 ****
 36  39  40 0
 6-311+G(2d,p)
 ****
 1  2  3  4  5  16  17  18  19  20  21  22  23  24 0
 3-21G
 ****
 26  27  29  30  31  37  38  41  42  43  44  45  46  47  48 0
 3-21G
 ****


