%nproc=1
%NoSave
%Mem=1900MB
#P OB98/GEN NMR

erre ene a

0 1
  C      177.762     748.810    -695.431
  O      178.792     748.776    -696.416
  P      179.480     750.158    -696.854
  C      178.202     750.597    -699.130
  O      179.407     750.329    -698.441
  C      178.530     751.077    -700.553
  O      179.027     752.443    -700.501
  C      179.594     750.246    -701.260
  O      179.032     749.124    -701.915
  C      180.212     751.252    -702.210
  O      179.366     751.454    -703.352
  C      180.224     752.535    -701.305
  N      181.378     752.734    -700.409
  C      182.624     753.072    -700.932
  O      182.855     753.220    -702.138
  N      183.639     753.255    -700.023
  C      183.497     753.308    -698.652
  O      184.437     753.543    -697.888
  C      182.138     753.090    -698.156
  C      181.161     752.787    -699.039
  O      181.038     749.904    -696.573
  O      178.974     751.359    -696.121
  H      179.688     752.251    -703.815
  H      181.359     750.500    -695.871
  H      184.558     753.449    -700.393
  H      181.985     753.153    -697.087
  H      180.163     752.630    -698.665
  H      180.164     753.415    -701.934
  H      181.174     750.902    -702.587
  H      180.354     749.928    -700.542
  H      177.594     751.069    -701.133
  H      177.606     751.342    -698.604
  H      177.595     749.675    -699.169
  P      178.793     747.758    -701.096
  C      180.661     746.597    -702.433
  O      179.293     746.580    -702.080
  O      177.429     747.585    -700.512
  O      179.923     747.779    -699.981
  H      179.591     748.129    -699.123
  H      180.905     745.682    -702.959
  H      181.280     746.675    -701.532
  H      180.869     747.440    -703.102
  H      177.408     747.816    -695.250
  H      176.954     749.418    -695.781
  H      178.151     749.221    -694.523

 3  4  5  6  7  8  9  10  11  12  13  23  28  29  30  31  32 0
 6-311+G(2d,p)
 ****
 33  34 0
 6-311+G(2d,p)
 ****
 1  2  14  15  16  17  18  19  20  21  22  24  25  26  27 0
 3-21G
 ****
 35  36  37  38  39  40  41  42  43  44  45 0
 3-21G
 ****


