%nproc=1
%NoSave
%Mem=1900MB
#P OB98/GEN NMR

erre ene a

0 1
  C       94.889      34.843      50.835
  O       94.933      36.201      50.443
  H       93.994      34.383      50.409
  H       94.843      34.769      51.925
  H       95.770      34.313      50.463
  P       96.191      37.052      50.958
  C       97.699      36.432      48.923
  O       97.022      37.450      49.645
  C       99.038      36.955      48.390
  O       99.770      35.843      47.795
  C       98.897      38.029      47.298
  O      100.054      38.880      47.365
  C       98.955      37.190      46.033
  O       99.169      37.999      44.899
  C      100.058      36.213      46.428
  N      100.451      34.479      41.635
  C      100.494      35.727      42.145
  N      100.394      36.111      43.433
  C      100.258      35.042      44.238
  C      100.208      33.711      43.864
  C      100.307      33.438      42.489
  N      100.257      32.167      41.967
  N      100.056      32.898      44.976
  C      100.018      33.729      45.998
  N      100.127      35.032      45.600
  O       97.109      35.954      51.673
  O       95.867      38.190      51.866
  H       99.414      37.453      44.123
  H       96.930      35.946      52.632
  H      100.621      36.528      41.419
  H       99.903      33.443      47.036
  H      101.047      36.687      46.414
  H       98.008      36.665      45.870
  H       97.992      38.633      47.399
  H       99.641      37.315      49.231
  H       97.063      36.120      48.087
  H       97.878      35.576      49.579
  H      100.319      32.059      40.967
  H      100.132      31.384      42.590
  P       99.851      40.476      47.367
  C      100.466      40.880      49.877
  O      100.779      41.110      48.511
  O       98.387      40.625      48.007
  O       99.913      41.138      46.031
  H       97.967      41.441      47.676
  H      101.186      41.374      50.496
  H      100.487      39.829      50.076
  H       99.490      41.264      50.089

 6  7  8  9  10  11  12  13  14  15  25  28  32  33  34  35 0
 6-311+G(2d,p)
 ****
 36  37  40 0
 6-311+G(2d,p)
 ****
 1  2  3  4  5  16  17  18  19  20  21  22  23  24 0
 3-21G
 ****
 26  27  29  30  31  38  39 41  42  43  44  45  46  47  48 0
 3-21G
 ****


