%nproc=1
%NoSave
%Mem=1900MB
#P OB98/GEN NMR

erre ene a

0 1
  C      229.958     378.392      48.311
  O      229.251     378.763      47.139
  P      229.869     379.915      46.212
  C      231.718     380.049      44.397
  O      231.170     379.319      45.485
  C      233.241     379.899      44.353
  O      233.831     380.617      45.469
  C      233.720     378.447      44.445
  O      234.915     378.289      43.666
  C      234.106     378.293      45.901
  O      235.044     377.232      46.086
  C      234.656     379.689      46.201
  N      237.007     378.923      50.606
  C      237.449     378.673      49.323
  N      238.644     378.058      49.207
  N      236.782     379.005      48.247
  C      235.598     379.607      48.520
  C      235.059     379.923      49.749
  C      235.807     379.538      50.928
  O      235.457     379.705      52.092
  N      233.858     380.563      49.619
  C      233.640     380.606      48.318
  N      234.651     380.001      47.614
  O      230.473     380.944      47.282
  O      228.886     380.589      45.318
  H      234.629     376.425      45.723
  H      229.900     381.732      47.342
  H      237.555     378.634      51.402
  H      232.768     381.029      47.843
  H      235.685     379.799      45.835
  H      233.217     378.073      46.504
  H      239.177     377.716      49.993
  H      232.978     377.705      44.129
  H      238.970     377.820      48.277
  H      233.614     380.373      43.437
  H      231.467     381.104      44.510
  H      231.280     379.692      43.457
  P      235.156     376.831      43.035
  C      233.688     375.213      41.626
  O      233.760     376.399      42.389
  O      235.289     375.893      44.324
  O      236.346     376.741      42.138
  H      235.819     375.101      44.111
  H      233.013     374.510      42.122
  H      234.668     374.736      41.501
  H      233.288     375.450      40.636
  H      229.423     377.617      48.820
  H      230.053     379.242      48.954
  H      230.931     378.037      48.043

 3  4  5  6  7  8  9  10  11  12  23  26  30  31 0
 6-311+G(2d,p)
 ****
 33  35  36  37  38 0
 6-311+G(2d,p)
 ****
 1  2  13  14  15  16  17  18  19  20  21  22  24  25 0
 3-21G
 ****
 27  28  29  32  34  39  40  41  42  43  44  45  46  47  48  49 0
 3-21G
 ****


