%nproc=1
%NoSave
%Mem=1900MB
#P OB98/GEN NMR

erre ene a

0 1
  C      -49.747     385.366    -241.691
  O      -50.144     384.016    -241.545
  H      -48.822     385.398    -242.270
  H      -49.564     385.813    -240.709
  H      -50.519     385.932    -242.224
  P      -51.480     383.752    -240.693
  C      -49.846     382.854    -238.885
  O      -51.014     383.616    -239.163
  C      -49.060     383.479    -237.737
  O      -48.668     384.835    -238.063
  C      -49.821     383.550    -236.418
  O      -49.756     382.319    -235.721
  C      -49.074     384.668    -235.705
  O      -47.854     384.192    -235.097
  C      -48.766     385.641    -236.861
  N      -50.178     390.271    -235.428
  C      -49.062     389.534    -235.087
  N      -48.222     390.096    -234.185
  N      -48.796     388.351    -235.572
  C      -49.739     387.902    -236.434
  C      -50.883     388.547    -236.866
  C      -51.144     389.871    -236.338
  O      -52.082     390.600    -236.652
  N      -51.578     387.773    -237.759
  C      -50.886     386.652    -237.840
  N      -49.768     386.681    -237.040
  O      -51.881     382.251    -241.088
  O      -52.599     384.706    -240.948
  H      -48.075     383.613    -234.349
  H      -52.853     382.160    -241.043
  H      -50.317     391.187    -235.032
  H      -51.147     385.803    -238.454
  H      -47.805     386.148    -236.725
  H      -49.668     385.107    -234.901
  H      -48.534     390.821    -233.550
  H      -50.864     383.857    -236.586
  H      -47.412     389.550    -233.912
  H      -48.136     382.896    -237.617
  H      -49.216     382.831    -239.782
  H      -50.137     381.830    -238.628
  P      -51.131     381.517    -235.493
  C      -50.900     382.467    -233.078
  O      -51.770     382.094    -234.139
  O      -50.637     380.053    -235.065
  O      -52.036     381.485    -236.679
  H      -51.364     379.412    -235.170
  H      -51.478     382.829    -232.254
  H      -50.237     383.237    -233.414
  H      -50.331     381.616    -232.768

 6  7  8  9  10  11  12  13  14  15  26  29  33  34 0
 6-311+G(2d,p)
 ****
 36  38  39  40  41 0
 6-311+G(2d,p)
 ****
 1  2  3  4  5  16  17  18  19  20  21  22  23  24  25 0
 3-21G
 ****
 27  28  30  31  32  35  37  42  43  44  45  46  47 0
 3-21G
 ****
 48  49 0
 3-21G
 ****


