%nproc=1
%NoSave
%Mem=1900MB
#P OB98/GEN NMR

erre ene a

0 1
  C      270.242    -177.479    -303.034
  O      269.576    -177.504    -301.788
  H      269.558    -177.847    -303.804
  H      271.120    -178.131    -303.001
  H      270.545    -176.458    -303.287
  P      270.345    -176.833    -300.546
  C      268.713    -174.778    -300.498
  O      270.035    -175.263    -300.641
  C      268.568    -173.403    -301.151
  O      269.608    -172.532    -300.636
  C      268.694    -173.429    -302.677
  O      267.809    -172.449    -303.220
  C      270.132    -172.998    -302.917
  O      270.319    -172.458    -304.221
  C      270.341    -172.006    -301.761
  N      271.753    -171.815    -301.440
  C      272.145    -170.524    -301.067
  O      271.318    -169.612    -301.031
  N      273.465    -170.287    -300.782
  C      274.334    -171.238    -300.924
  N      275.634    -170.931    -300.651
  C      273.976    -172.602    -301.359
  C      272.680    -172.821    -301.587
  O      271.873    -176.946    -301.009
  O      270.052    -177.463    -299.226
  H      269.887    -171.578    -304.260
  H      272.017    -176.698    -301.937
  H      274.740    -173.359    -301.472
  H      272.328    -173.793    -301.903
  H      269.912    -171.027    -302.011
  H      270.804    -173.856    -302.808
  H      268.469    -174.410    -303.101
  H      267.610    -172.967    -300.843
  H      275.838    -169.977    -300.378
  H      268.446    -174.705    -299.439
  H      276.400    -171.576    -300.780
  H      268.034    -175.495    -300.969
  P      266.371    -172.897    -303.763
  C      265.276    -171.337    -302.016
  O      265.268    -172.617    -302.636
  O      266.308    -174.248    -304.394
  O      266.038    -171.762    -304.853
  H      265.622    -172.202    -305.621
  H      264.493    -171.288    -301.289
  H      265.123    -170.581    -302.757
  H      266.219    -171.179    -301.535

 6  7  8  9  10  11  12  13  14  15  16  26  30  31  32  33  35 0
 6-311+G(2d,p)
 ****
 37  38 0
 6-311+G(2d,p)
 ****
 1  2  3  4  5  17  18  19  20  21  22  23  24  25 0
 3-21G
 ****
 27  28  29  34  36  39  40  41  42  43  44  45  46 0
 3-21G
 ****


