%nproc=1
%NoSave
%Mem=1900MB
#P OB98/GEN NMR

erre ene a

0 1
  C      -78.590     165.447     457.027
  O      -78.173     165.097     455.706
  P      -76.656     165.097     455.194
  C      -76.191     162.528     455.496
  O      -75.899     163.866     455.889
  C      -74.938     161.783     454.943
  O      -73.992     161.596     456.040
  C      -75.331     160.384     454.475
  O      -75.864     160.207     453.167
  C      -74.115     159.522     454.769
  O      -73.235     159.414     453.646
  C      -73.424     160.274     455.925
  N      -71.759     156.430     458.879
  C      -71.432     156.741     457.570
  N      -70.588     155.881     456.939
  N      -71.904     157.776     456.914
  C      -72.801     158.488     457.633
  C      -73.227     158.297     458.922
  C      -72.659     157.170     459.640
  O      -72.906     156.863     460.819
  N      -74.165     159.217     459.302
  C      -74.321     159.963     458.233
  N      -73.508     159.566     457.196
  O      -75.963     166.422     455.227
  O      -76.779     164.638     453.663
  H      -72.457     158.900     453.916
  H      -76.057     165.102     453.171
  H      -71.367     155.641     459.332
  H      -75.012     160.802     458.157
  H      -72.351     160.407     455.715
  H      -74.417     158.500     455.031
  H      -70.287     155.015     457.347
  H      -76.124     160.017     455.154
  H      -70.512     155.982     455.930
  H      -74.437     162.386     454.183
  H      -76.967     162.581     454.728
  H      -76.614     161.972     456.344
  P      -77.422     160.045     452.789
  C      -78.152     162.502     452.682
  O      -78.203     161.291     453.418
  O      -77.908     158.825     453.701
  O      -77.695     159.788     451.349
  H      -78.773     158.472     453.357
  H      -78.444     163.333     453.341
  H      -78.841     162.458     451.839
  H      -77.136     162.691     452.317
  H      -79.654     165.362     457.099
  H      -78.298     166.454     457.238
  H      -78.131     164.787     457.733

 3  4  5  6  7  8  9  10  11  12  23  26  30  31 0
 6-311+G(2d,p)
 ****
 33  35  36  37  38 0
 6-311+G(2d,p)
 ****
 1  2  13  14  15  16  17  18  19  20  21  22  24  25 0
 3-21G
 ****
 27  28  29  32  34  39  40  41  42  43  44  45  46  47  48  49 0
 3-21G
 ****


