%nproc=1
%NoSave
%Mem=1900MB
#P OB98/GEN NMR

erre ene a

0 1
  C      -34.449     333.590     483.527
  O      -35.810     333.975     483.508
  P      -36.323     334.887     482.292
  C      -35.905     337.344     481.521
  O      -35.823     336.378     482.561
  C      -36.865     338.478     481.945
  O      -36.460     339.039     483.206
  C      -36.884     339.651     480.961
  O      -37.685     339.341     479.827
  C      -37.450     340.759     481.830
  O      -38.887     340.692     481.884
  C      -36.840     340.435     483.206
  N      -35.726     341.318     483.562
  C      -35.994     342.306     484.468
  O      -37.123     342.475     484.979
  N      -34.962     343.139     484.791
  C      -33.712     343.109     484.235
  O      -32.842     343.922     484.515
  C      -33.482     342.046     483.239
  C      -34.472     341.218     482.937
  O      -37.894     334.970     482.491
  O      -35.950     334.368     480.940
  H      -39.209     340.813     480.962
  H      -38.354     334.971     481.620
  H      -35.128     343.856     485.472
  H      -32.503     341.993     482.790
  H      -34.354     340.436     482.198
  H      -37.607     340.527     483.987
  H      -37.195     341.744     481.451
  H      -35.859     339.903     480.666
  H      -37.869     338.051     482.059
  H      -36.286     336.874     480.615
  H      -34.894     337.742     481.322
  P      -37.353     340.140     478.467
  C      -37.499     342.682     477.830
  O      -37.830     341.665     478.762
  O      -38.439     339.535     477.469
  O      -35.943     339.953     478.011
  H      -39.265     339.311     477.940
  H      -37.526     342.312     476.801
  H      -36.513     343.074     478.060
  H      -38.233     343.481     477.934
  H      -34.260     332.989     484.392
  H      -33.832     334.463     483.558
  H      -34.226     333.026     482.646

 3  4  5  6  7  8  9  10  11  12  13  23  28  29  30  31  32 0
 6-311+G(2d,p)
 ****
 33  34 0
 6-311+G(2d,p)
 ****
 1  2  14  15  16  17  18  19  20  21  22  24  25  26 0
 3-21G
 ****
 27  35  36  37  38  39  40  41  42  43  44  45 0
 3-21G
 ****


