%nproc=1
%NoSave
%Mem=1900MB
#P OB98/GEN NMR

erre ene a

0 1
  C      -63.847    -202.294    -428.421
  O      -64.709    -201.796    -427.392
  P      -64.113    -200.635    -426.446
  C      -64.827    -201.801    -424.230
  O      -64.948    -200.661    -425.073
  C      -66.152    -202.096    -423.531
  O      -67.105    -202.674    -424.445
  C      -66.046    -203.096    -422.386
  O      -65.563    -202.487    -421.197
  C      -67.505    -203.513    -422.221
  O      -68.203    -202.543    -421.417
  C      -68.023    -203.484    -423.668
  N      -70.514    -207.897    -423.767
  C      -70.734    -206.771    -422.992
  N      -71.787    -206.825    -422.147
  N      -69.996    -205.700    -423.048
  C      -68.994    -205.779    -423.965
  C      -68.673    -206.838    -424.781
  C      -69.481    -208.035    -424.692
  O      -69.309    -209.071    -425.327
  N      -67.599    -206.544    -425.583
  C      -67.288    -205.304    -425.267
  N      -68.095    -204.801    -424.278
  O      -64.622    -199.295    -427.158
  O      -62.629    -200.673    -426.309
  H      -69.123    -202.855    -421.325
  H      -64.014    -198.557    -426.960
  H      -71.109    -208.700    -423.680
  H      -66.491    -204.725    -425.725
  H      -69.007    -203.017    -423.736
  H      -67.613    -204.480    -421.719
  H      -72.442    -207.591    -422.107
  H      -65.444    -203.963    -422.678
  H      -71.986    -205.994    -421.601
  H      -66.560    -201.146    -423.156
  H      -64.050    -201.624    -423.479
  H      -64.499    -202.655    -424.828
  P      -64.231    -203.109    -420.547
  C      -65.072    -203.268    -418.094
  O      -64.227    -202.613    -419.023
  O      -63.062    -202.259    -421.233
  O      -64.065    -204.576    -420.759
  H      -62.243    -202.793    -421.286
  H      -65.048    -204.352    -418.232
  H      -66.101    -202.906    -418.214
  H      -64.733    -203.031    -417.082
  H      -64.356    -203.055    -428.975
  H      -62.964    -202.705    -427.978
  H      -63.577    -201.494    -429.078

 3  4  5  6  7  8  9  10  11  12  23  26  30  31  33  0
 6-311+G(2d,p)
 ****
 35  36  37  38 0
 6-311+G(2d,p)
 ****
 1  2  13  14  15  16  17  18  19  20  21  22  24  25  27  28  29 0
 3-21G
 ****
 32  34  39  40  41  42  43  44  45  46  47  48  49 0
 3-21G
 ****


