%nproc=1
%NoSave
%Mem=1900MB
#P OB98/GEN NMR

erre ene a

0 1
  C     -117.844    -582.613    -171.155
  O     -117.481    -582.323    -169.795
  P     -116.023    -582.742    -169.266
  C     -113.837    -582.789    -170.706
  O     -114.921    -582.029    -170.186
  C     -112.796    -581.864    -171.350
  O     -113.430    -580.955    -172.280
  C     -112.062    -580.969    -170.359
  O     -111.066    -581.681    -169.643
  C     -111.493    -579.896    -171.288
  O     -110.276    -580.346    -171.904
  C     -112.613    -579.767    -172.338
  N     -113.419    -578.560    -172.157
  C     -114.189    -578.154    -173.240
  O     -114.177    -578.728    -174.328
  N     -114.961    -577.034    -173.045
  C     -114.981    -576.265    -171.912
  O     -115.682    -575.261    -171.807
  C     -114.089    -576.692    -170.832
  C     -113.358    -577.799    -171.000
  O     -115.921    -584.268    -169.747
  O     -115.814    -582.638    -167.786
  H     -109.784    -580.846    -171.220
  H     -115.328    -584.766    -169.149
  H     -115.548    -576.745    -173.809
  H     -114.062    -576.094    -169.926
  H     -112.690    -578.132    -170.205
  H     -112.184    -579.743    -173.349
  H     -111.266    -578.964    -170.760
  H     -112.784    -580.505    -169.672
  H     -112.084    -582.490    -171.912
  H     -114.215    -583.486    -171.468
  H     -113.387    -583.377    -169.898
  P     -111.494    -582.271    -168.212
  C     -111.013    -584.720    -167.385
  O     -111.515    -583.868    -168.399
  O     -113.038    -581.838    -168.152
  O     -110.660    -581.750    -167.081
  H     -113.458    -581.855    -169.029
  H     -111.182    -584.297    -166.393
  H     -109.941    -584.861    -167.544
  H     -111.514    -585.682    -167.451
  H     -118.841    -582.270    -171.339
  H     -117.794    -583.669    -171.320
  H     -117.167    -582.116    -171.818

 3  4  5  6  7  8  9  10  11  12  13  23  28  29  30  31  32 0
 6-311+G(2d,p)
 ****
 33  34 0
 6-311+G(2d,p)
 ****
 1  2  14  15  16  17  18  19  20  21  22  24  25  26 0
 3-21G
 ****
 27  35  36  37  38  39  40  41  42  43  44  45 0
 3-21G
 ****


