%nproc=1
%NoSave
%Mem=1900MB
#P OB98/GEN NMR

erre ene a

0 1
  C       57.549     -30.794      11.841
  O       57.279     -29.407      11.735
  P       56.190     -28.839      10.698
  C       58.101     -28.588       8.973
  O       56.810     -29.106       9.244
  C       58.195     -28.126       7.518
  O       58.055     -29.285       6.654
  C       57.121     -27.111       7.107
  O       57.723     -26.214       6.166
  C       56.078     -27.977       6.429
  O       55.244     -27.240       5.547
  C       56.969     -29.019       5.744
  N       56.248     -30.243       5.416
  C       55.566     -30.289       4.199
  O       55.556     -29.319       3.443
  N       54.903     -31.443       3.860
  C       54.852     -32.430       4.700
  N       54.234     -33.572       4.293
  C       55.466     -32.382       6.040
  C       56.158     -31.280       6.316
  O       55.764     -27.434      10.945
  O       55.002     -29.904      10.752
  H       54.686     -26.642       6.080
  H       54.361     -29.730      11.486
  H       55.372     -33.220       6.715
  H       56.662     -31.167       7.266
  H       57.415     -28.598       4.836
  H       55.439     -28.440       7.188
  H       56.734     -26.538       7.955
  H       59.196     -27.713       7.350
  H       53.981     -33.628       3.312
  H       58.834     -29.383       9.138
  H       54.434     -34.460       4.739
  H       58.322     -27.767       9.663
  P       57.182     -24.704       6.102
  C       55.795     -25.153       3.956
  O       55.799     -24.705       5.294
  O       58.190     -24.046       5.036
  O       57.220     -23.930       7.378
  H       58.240     -23.086       5.199
  H       54.774     -25.092       3.570
  H       56.126     -26.193       3.898
  H       56.441     -24.523       3.339
  H       58.301     -30.955      12.585
  H       57.895     -31.163      10.898
  H       56.655     -31.311      12.120

 3  4  5  6  7  8  9  10  11  12  13  23  27  28  29  30  32 0
 6-311+G(2d,p)
 ****
 34  35 0
 6-311+G(2d,p)
 ****
 1  2  14  15  16  17  18  19  20  21  22  24  25  26 0
 3-21G
 ****
 31  33  36  37  38  39  40  41  42  43  44  45  46 0
 3-21G
 ****


