%nproc=1
%NoSave
%Mem=1900MB
#P OB98/GEN NMR

erre ene a

0 1
  C     -345.929      19.580      -7.386
  O     -346.157      18.558      -6.441
  P     -345.130      18.284      -5.239
  C     -342.972      16.885      -5.043
  O     -343.802      17.664      -5.902
  C     -341.550      16.797      -5.606
  O     -341.152      18.124      -6.081
  C     -340.514      16.340      -4.556
  O     -339.706      15.229      -4.968
  C     -339.754      17.623      -4.251
  O     -338.476      17.414      -3.690
  C     -339.809      18.347      -5.606
  N     -339.482      19.767      -5.494
  C     -338.168      20.094      -5.174
  O     -337.273      19.270      -4.988
  N     -337.904      21.424      -5.000
  C     -338.825      22.430      -5.003
  O     -338.535      23.589      -4.740
  C     -340.208      22.020      -5.309
  C     -340.467      20.733      -5.559
  O     -345.675      17.493      -4.101
  O     -344.646      19.759      -4.839
  H     -338.150      18.272      -3.350
  H     -344.211      20.257      -5.556
  H     -336.954      21.676      -4.765
  H     -340.960      22.796      -5.306
  H     -341.474      20.403      -5.785
  H     -339.129      17.888      -6.328
  H     -340.338      18.189      -3.513
  H     -341.008      15.983      -3.645
  H     -341.576      16.115      -6.462
  H     -343.389      15.877      -4.967
  H     -342.975      17.316      -4.034
  P     -338.874      14.282      -3.981
  C     -336.853      14.552      -2.364
  O     -337.719      15.158      -3.301
  O     -338.425      12.988      -4.570
  O     -339.893      14.024      -2.766
  H     -339.707      13.156      -2.366
  H     -336.502      15.316      -1.663
  H     -335.984      14.138      -2.889
  H     -337.354      13.757      -1.806
  H     -346.728      19.593      -8.097
  H     -345.004      19.398      -7.892
  H     -345.882      20.525      -6.885

 3  4  5  6  7  8  9  10  11  12  13  23  28  29  30  31  32 0
 6-311+G(2d,p)
 ****
 33  34 0
 6-311+G(2d,p)
 ****
 1  2  14  15  16  17  18  19  20  21  22  24  25  26  27 0
 3-21G
 ****
 35  36  37  38  39  40  41  42  43  44  45 0
 3-21G
 ****


