%nproc=1
%NoSave
%Mem=1900MB
#P OB98/GEN NMR

erre ene a

0 1
  C       29.681     135.261     -42.744
  O       30.118     135.409     -41.402
  P       31.193     134.357     -40.843
  C       29.340     132.711     -40.097
  O       30.492     132.913     -40.907
  C       29.356     131.321     -39.465
  O       29.195     130.326     -40.515
  C       30.653     130.987     -38.706
  O       30.324     130.339     -37.468
  C       31.333     129.962     -39.597
  O       32.210     129.110     -38.863
  C       30.114     129.260     -40.194
  N       29.690     124.622     -42.151
  C       29.078     125.169     -41.044
  N       28.281     124.345     -40.326
  N       29.229     126.412     -40.668
  C       30.028     127.129     -41.500
  C       30.686     126.702     -42.629
  C       30.558     125.305     -42.998
  O       31.145     124.741     -43.915
  N       31.388     127.726     -43.215
  C       31.160     128.767     -42.439
  N       30.379     128.446     -41.359
  O       31.236     134.691     -39.279
  O       32.550     134.445     -41.454
  H       32.580     128.466     -39.499
  H       32.154     134.891     -39.011
  H       29.558     123.653     -42.386
  H       31.563     129.762     -42.602
  H       29.638     128.618     -39.438
  H       31.914     130.482     -40.367
  H       28.092     123.389     -40.579
  H       31.295     131.854     -38.511
  H       27.803     124.737     -39.523
  H       28.486     131.228     -38.802
  H       28.444     132.813     -40.717
  H       29.319     133.479     -39.316
  P       31.299     130.647     -36.231
  C       32.790     128.583     -36.788
  O       32.710     129.984     -36.612
  O       30.730     129.703     -35.068
  O       31.336     132.087     -35.832
  H       30.970     130.059     -34.191
  H       31.802     128.109     -36.800
  H       33.377     128.153     -35.973
  H       33.291     128.375     -37.739
  H       28.971     136.028     -42.974
  H       29.223     134.302     -42.866
  H       30.520     135.342     -43.403

 3  4  5  6  7  8  9  10  11  12  23  26  30  31  33  0
 6-311+G(2d,p)
 ****
 35  36  37  38 0
 6-311+G(2d,p)
 ****
 1  2  13  14  15  16  17  18  19  20  21  22  24  25  27  28  29 0
 3-21G
 ****
 32  34  39  40  41  42  43  44  45  46  47  48  49 0
 3-21G
 ****


