%nproc=1
%NoSave
%Mem=1900MB
#P OB98/GEN NMR

erre ene a

0 1
  C      117.944    -331.100    -309.539
  O      119.254    -330.529    -309.651
  P      119.413    -329.165    -310.473
  C      120.646    -327.609    -308.794
  O      120.733    -328.421    -309.953
  C      121.945    -326.825    -308.592
  O      123.047    -327.698    -308.252
  C      122.392    -326.054    -309.826
  O      121.724    -324.806    -309.938
  C      123.862    -325.828    -309.513
  O      124.004    -324.719    -308.603
  C      124.255    -327.142    -308.829
  N      128.599    -329.183    -310.423
  C      128.368    -328.225    -309.456
  N      129.456    -327.747    -308.810
  N      127.179    -327.776    -309.146
  C      126.188    -328.358    -309.856
  C      126.289    -329.315    -310.842
  C      127.608    -329.791    -311.185
  O      127.876    -330.627    -312.044
  N      125.058    -329.653    -311.337
  C      124.210    -328.921    -310.644
  N      124.847    -328.104    -309.742
  O      118.237    -328.253    -309.877
  O      119.294    -329.322    -311.953
  H      124.957    -324.645    -308.404
  H      117.946    -327.607    -310.548
  H      129.535    -329.487    -310.623
  H      123.133    -328.943    -310.754
  H      124.971    -326.989    -308.012
  H      124.446    -325.579    -310.407
  H      130.394    -328.082    -308.964
  H      122.286    -326.663    -310.736
  H      129.303    -327.068    -308.075
  H      121.793    -326.118    -307.764
  H      120.440    -328.223    -307.912
  H      119.785    -326.939    -308.893
  P      120.257    -324.796    -310.587
  C      119.633    -322.509    -309.531
  O      119.838    -323.257    -310.711
  O      119.342    -325.356    -309.399
  O      120.117    -325.613    -311.827
  H      118.585    -325.847    -309.768
  H      119.515    -321.456    -309.799
  H      120.487    -322.606    -308.855
  H      118.724    -322.845    -309.025
  H      117.996    -332.002    -308.966
  H      117.566    -331.319    -310.516
  H      117.292    -330.405    -309.052

 3  4  5  6  7  8  9  10  11  12  23  26  30  31 0
 6-311+G(2d,p)
 ****
 33  35  36  37  38 0
 6-311+G(2d,p)
 ****
 1  2  13  14  15  16  17  18  19  20  21  22  24  25 0
 3-21G
 ****
 27  28  29  32  34  39  40  41  42  43  44  45  46  47  48  49 0
 3-21G
 ****


