%nproc=1
%NoSave
%Mem=1900MB
#P OB98/GEN NMR

erre ene a

0 1
  C     -249.750    -579.377     317.361
  O     -248.911    -580.503     317.176
  P     -249.253    -581.528     315.993
  C     -247.645    -580.538     314.200
  O     -248.991    -580.769     314.599
  C     -247.521    -580.647     312.681
  O     -247.617    -582.049     312.285
  C     -248.603    -579.878     311.905
  O     -248.006    -579.391     310.694
  C     -249.606    -580.967     311.573
  O     -250.468    -580.630     310.497
  C     -248.653    -582.134     311.285
  N     -249.323    -583.438     311.308
  C     -250.332    -583.645     310.379
  O     -250.695    -582.812     309.547
  N     -250.983    -584.850     310.469
  C     -250.789    -585.805     311.428
  O     -251.479    -586.805     311.520
  C     -249.703    -585.521     312.380
  C     -249.029    -584.365     312.279
  O     -250.849    -581.647     316.062
  O     -248.591    -582.858     316.107
  H     -251.123    -579.992     310.835
  H     -251.110    -582.466     316.525
  H     -251.714    -585.031     309.792
  H     -249.504    -586.266     313.149
  H     -248.241    -584.134     312.988
  H     -248.172    -581.991     310.314
  H     -250.227    -581.172     312.456
  H     -249.048    -579.051     312.467
  H     -246.520    -580.302     312.387
  H     -246.997    -581.279     314.668
  H     -247.329    -579.546     314.545
  P     -248.389    -577.913     310.205
  C     -246.208    -576.773     311.091
  O     -247.611    -576.898     311.166
  O     -249.914    -577.822     310.693
  O     -248.220    -577.701     308.735
  H     -250.046    -578.186     311.585
  H     -245.848    -576.900     310.068
  H     -245.745    -577.522     311.735
  H     -245.920    -575.776     311.446
  H     -249.390    -578.796     318.184
  H     -250.748    -579.705     317.565
  H     -249.746    -578.779     316.473

 3  4  5  6  7  8  9  10  11  12  13  23  28  29  30  31  32 0
 6-311+G(2d,p)
 ****
 33  34 0
 6-311+G(2d,p)
 ****
 1  2  14  15  16  17  18  19  20  21  22  24  25  26 0
 3-21G
 ****
 27  35  36  37  38  39  40  41  42  43  44  45 0
 3-21G
 ****


