%nproc=1
%NoSave
%Mem=1900MB
#P OB98/GEN NMR

erre ene a

0 1
  C      251.182     106.025     -92.628
  O      250.093     105.201     -92.984
  H      251.501     106.587     -93.510
  H      252.018     105.411     -92.285
  H      250.892     106.730     -91.844
  P      249.358     104.397     -91.806
  C      248.969     105.991     -89.793
  O      248.460     105.467     -91.011
  C      247.904     106.837     -89.093
  O      247.543     107.944     -89.958
  C      246.626     106.064     -88.758
  O      246.141     106.509     -87.488
  C      245.656     106.486     -89.846
  O      244.292     106.359     -89.446
  C      246.111     107.923     -90.128
  N      245.717     108.357     -91.466
  C      244.407     108.826     -91.614
  O      243.646     108.850     -90.647
  N      243.974     109.201     -92.858
  C      244.751     109.039     -93.885
  N      244.252     109.400     -95.099
  C      246.116     108.483     -93.786
  C      246.533     108.176     -92.560
  O      250.542     104.078     -90.778
  O      248.626     103.169     -92.230
  H      243.724     106.722     -90.161
  H      250.387     103.236     -90.312
  H      246.715     108.345     -94.675
  H      247.515     107.757     -92.390
  H      245.680     108.615     -89.392
  H      245.805     105.860     -90.734
  H      246.771     104.979     -88.733
  H      248.346     107.270     -88.188
  H      243.305     109.760     -95.126
  H      249.837     106.622     -90.012
  H      244.749     109.276     -95.968
  H      249.288     105.166     -89.146
  P      245.827     105.374     -86.400
  C      247.224     104.378     -84.449
  O      247.219     104.876     -85.780
  O      245.338     104.136     -87.287
  O      244.796     105.776     -85.396
  H      244.379     104.003     -87.174
  H      248.218     104.087     -84.181
  H      246.575     103.530     -84.383
  H      246.883     105.141     -83.781

 6  7  8  9  10  11  12  13  14  15  16  26  30  31  32  33  35 0
 6-311+G(2d,p)
 ****
 37  38 0
 6-311+G(2d,p)
 ****
 1  2  3  4  5  17  18  19  20  21  22  23  24  25 0
 3-21G
 ****
 27  28  29  34  36  39  40  41  42  43  44  45  46 0
 3-21G
 ****


