%nproc=1
%NoSave
%Mem=1900MB
#P OB98/GEN NMR

erre ene a

0 1
  C       73.077      11.239     -27.922
  O       74.200      12.128     -27.986
  P       75.033      12.589     -26.692
  C       73.821      14.774     -26.052
  O       74.072      13.419     -25.708
  C       73.058      15.512     -24.945
  O       71.678      15.036     -24.883
  C       73.662      15.346     -23.538
  O       73.521      16.610     -22.880
  C       72.750      14.293     -22.925
  O       72.808      14.242     -21.512
  C       71.404      14.753     -23.494
  N       70.310      13.796     -23.368
  C       69.983      13.344     -22.083
  O       70.630      13.693     -21.096
  N       68.927      12.475     -21.941
  C       68.260      12.084     -22.983
  N       67.221      11.233     -22.770
  C       68.581      12.519     -24.353
  C       69.603      13.365     -24.470
  O       76.302      13.306     -27.022
  O       75.343      11.244     -25.881
  H       76.225      11.313     -25.469
  H       73.694      13.925     -21.258
  H       67.995      12.175     -25.194
  H       69.884      13.755     -25.444
  H       71.115      15.701     -23.025
  H       73.042      13.311     -23.307
  H       74.721      15.068     -23.545
  H       73.011      16.574     -25.216
  H       67.025      10.965     -21.813
  H       73.220      14.794     -26.966
  H       66.631      10.873     -23.506
  H       74.774      15.274     -26.257
  P       74.795      17.283     -22.174
  C       74.874      15.893     -19.971
  O       75.463      16.178     -21.224
  O       74.100      18.258     -21.103
  O       75.710      18.062     -23.062
  H       74.707      18.993     -20.899
  H       74.848      14.808     -19.835
  H       73.854      16.280     -19.894
  H       75.485      16.336     -19.180
  H       72.690      11.082     -28.907
  H       72.316      11.669     -27.305
  H       73.386      10.303     -27.507

 3  4  5  6  7  8  9  10  11  12  13  24  27  28  29  30  32 0
 6-311+G(2d,p)
 ****
 34  35 0
 6-311+G(2d,p)
 ****
 1  2  14  15  16  17  18  19  20  21  22  23  25  26 0
 3-21G
 ****
 31  33  36  37  38  39  40  41  42  43  44  45  46 0
 3-21G
 ****


