%nproc=1
%NoSave
%Mem=1900MB
#P OB98/GEN NMR

erre ene a

0 1
  C     -275.668    -103.138     165.696
  O     -275.340    -103.116     164.320
  H     -274.746    -103.032     166.279
  H     -276.145    -104.084     165.968
  H     -276.330    -102.302     165.940
  P     -276.492    -103.415     163.248
  C     -278.075    -101.389     163.457
  O     -277.008    -101.985     162.726
  C     -278.071     -99.868     163.284
  O     -276.785     -99.357     163.735
  C     -278.279     -99.411     161.833
  O     -279.076     -98.221     161.848
  C     -276.870     -99.104     161.373
  O     -276.860     -98.190     160.292
  C     -276.209     -98.590     162.657
  N     -274.750     -98.736     162.601
  C     -274.030     -97.627     162.139
  O     -274.621     -96.585     161.826
  N     -272.673     -97.734     161.985
  C     -272.085     -98.866     162.214
  N     -270.740     -98.915     162.004
  C     -272.809    -100.076     162.670
  C     -274.124     -99.937     162.843
  O     -277.575    -104.347     163.685
  O     -275.692    -103.992     161.984
  H     -275.941     -97.870     160.146
  H     -275.627    -104.965     162.048
  H     -272.271    -101.001     162.841
  H     -274.736    -100.776     163.170
  H     -276.453     -97.536     162.827
  H     -276.379    -100.031     161.037
  H     -278.758    -100.174     161.209
  H     -278.833     -99.437     163.949
  H     -270.290     -98.072     161.664
  H     -277.940    -101.639     164.512
  H     -270.185     -99.753     162.104
  H     -279.034    -101.798     163.115
  P     -280.641     -98.271     161.472
  C     -281.789     -99.219     163.560
  O     -281.503     -98.038     162.813
  O     -281.048     -99.463     160.671
  O     -280.880     -96.918     160.646
  H     -281.598     -97.063     159.995
  H     -282.362     -98.963     164.427
  H     -280.872     -99.681     163.862
  H     -282.348     -99.899     162.952

 6  7  8  9  10  11  12  13  14  15  16  26  30  31  32  33  35 0
 6-311+G(2d,p)
 ****
 37  38 0
 6-311+G(2d,p)
 ****
 1  2  3  4  5  17  18  19  20  21  22  23  24  25 0
 3-21G
 ****
 27  28  29  34  36  39  40  41  42  43  44  45  46 0
 3-21G
 ****


