%nproc=1
%NoSave
%Mem=1900MB
#P OB98/GEN NMR

erre ene a

0 1
  C      416.904    -685.518      17.503
  O      417.516    -685.994      16.316
  P      418.901    -686.793      16.464
  C      421.309    -686.095      17.166
  O      419.926    -685.753      17.133
  C      422.137    -685.031      16.433
  O      421.994    -683.758      17.089
  C      423.631    -685.320      16.417
  O      423.992    -686.242      15.390
  C      424.179    -683.931      16.095
  O      424.053    -683.656      14.695
  C      423.237    -683.035      16.900
  N      425.078    -679.190      19.723
  C      424.704    -679.249      18.438
  N      424.240    -680.315      17.759
  C      424.213    -681.417      18.539
  C      424.612    -681.502      19.865
  C      425.046    -680.316      20.477
  N      425.407    -680.247      21.806
  N      424.441    -682.794      20.332
  C      423.937    -683.453      19.306
  N      423.771    -682.665      18.207
  O      419.415    -686.902      14.957
  O      418.804    -688.120      17.128
  H      423.144    -683.901      14.438
  H      420.042    -687.654      14.869
  H      424.783    -678.320      17.880
  H      423.683    -684.507      19.322
  H      422.997    -682.100      16.376
  H      425.236    -683.834      16.350
  H      423.998    -685.634      17.394
  H      421.744    -684.955      15.413
  H      421.444    -687.064      16.673
  H      425.539    -679.334      22.204
  H      425.186    -681.040      22.392
  H      421.632    -686.178      18.214
  P      425.340    -687.080      15.619
  C      427.647    -686.535      16.721
  O      426.322    -686.101      16.406
  O      425.968    -687.162      14.151
  O      425.131    -688.422      16.222
  H      426.542    -687.940      14.061
  H      428.255    -685.654      16.954
  H      428.092    -687.047      15.843
  H      427.608    -687.209      17.561
  H      415.996    -685.009      17.257
  H      417.568    -684.842      18.000
  H      416.686    -686.344      18.148

 3  4  5  6  7  8  9  10  11  12  22  25  29  30  31  32 0
 6-311+G(2d,p)
 ****
 33  36  37 0
 6-311+G(2d,p)
 ****
 1  2  13  14  15  16  17  18  19  20  21  23  24  26 0
 3-21G
 ****
 27  28  34  35  38  39  40  41  42  43  44  45  46  47  48 0
 3-21G
 ****


