%nproc=1
%NoSave
%Mem=1900MB
#P OB98/GEN NMR

erre ene a

0 1
  C     -521.780     838.099    -614.052
  O     -522.435     839.041    -614.889
  H     -522.266     838.105    -613.076
  H     -520.731     838.362    -613.923
  H     -521.863     837.092    -614.481
  P     -521.878     839.257    -616.374
  C     -520.618     841.480    -615.984
  O     -521.742     840.840    -616.570
  C     -520.738     843.004    -616.111
  O     -520.848     843.390    -617.493
  C     -521.968     843.589    -615.395
  O     -521.715     843.739    -614.012
  C     -522.084     844.923    -616.124
  O     -521.086     845.841    -615.622
  C     -521.738     844.532    -617.573
  N     -524.226     845.395    -621.918
  C     -523.162     846.065    -621.356
  N     -522.715     847.140    -622.034
  N     -522.598     845.726    -620.227
  C     -523.201     844.677    -619.633
  C     -524.268     843.930    -620.076
  C     -524.845     844.277    -621.357
  O     -525.768     843.684    -621.904
  N     -524.660     842.989    -619.152
  C     -523.788     843.129    -618.171
  N     -522.875     844.145    -618.395
  O     -522.641     838.568    -617.470
  O     -520.353     838.767    -616.304
  H     -520.243     845.352    -615.574
  H     -520.272     837.823    -616.542
  H     -524.634     845.705    -622.790
  H     -523.752     842.519    -617.265
  H     -521.215     845.331    -618.104
  H     -523.050     845.394    -615.977
  H     -523.203     847.538    -622.820
  H     -522.864     843.002    -615.601
  H     -521.975     847.691    -621.613
  H     -519.806     843.452    -615.706
  H     -519.724     841.127    -616.514
  H     -520.530     841.206    -614.921
  P     -522.814     843.323    -612.909
  C     -522.568     845.534    -611.562
  O     -522.392     844.127    -611.577
  O     -523.005     841.862    -612.732
  O     -524.128     844.122    -613.359
  H     -524.666     843.636    -614.031
  H     -522.246     845.924    -610.619
  H     -523.602     845.766    -611.709
  H     -521.989     845.974    -612.346

 6  7  8  9  10  11  12  13  14  15  26  29  33  34 0
 6-311+G(2d,p)
 ****
 36  38  39  40  41 0
 6-311+G(2d,p)
 ****
 1  2  3  4  5  16  17  18  19  20  21  22  23  24  25 0
 3-21G
 ****
 27  28  30  31  32  35  37  42  43  44  45  46  47 0
 3-21G
 ****
 48  49 0
 3-21G
 ****


