%nproc=1
%NoSave
%Mem=1900MB
#P OB98/GEN NMR

erre ene a

0 1
  C       51.272      93.329     149.915
  O       50.349      94.109     149.180
  H       52.071      93.005     149.244
  H       50.772      92.443     150.322
  H       51.707      93.919     150.730
  P       49.183      94.830     150.011
  C       47.623      93.743     151.821
  O       48.178      93.676     150.516
  C       46.703      92.544     152.055
  O       47.418      91.434     152.625
  C       45.587      92.809     153.052
  O       44.591      93.670     152.546
  C       45.102      91.388     153.306
  O       44.254      90.932     152.241
  C       46.440      90.605     153.317
  N       46.881      90.257     154.658
  C       46.415      89.031     155.148
  O       45.687      88.317     154.453
  N       46.755      88.662     156.430
  C       47.512      89.435     157.142
  N       47.812      89.021     158.403
  C       48.049      90.721     156.653
  C       47.691      91.070     155.419
  O       48.339      95.559     148.863
  O       49.646      95.729     151.110
  H       44.818      90.887     151.444
  H       48.058      94.962     148.149
  H       48.687      91.325     157.285
  H       48.039      91.998     154.984
  H       46.347      89.680     152.730
  H       44.526      91.309     154.228
  H       46.004      93.195     153.991
  H       46.303      92.230     151.078
  H       47.408      88.137     158.713
  H       47.083      94.681     151.973
  H       48.362      89.548     159.061
  H       48.454      93.721     152.534
  P       43.754      94.621     153.535
  C       42.017      94.242     155.394
  O       42.697      93.671     154.279
  O       43.164      95.831     152.897
  O       44.804      94.947     154.707
  H       45.136      94.166     155.180
  H       41.342      93.522     155.807
  H       41.468      95.103     155.074
  H       42.730      94.530     156.137

 6  7  8  9  10  11  12  13  14  15  16  26  30  31  32  33  35 0
 6-311+G(2d,p)
 ****
 37  38 0
 6-311+G(2d,p)
 ****
 1  2  3  4  5  17  18  19  20  21  22  23  24  25 0
 3-21G
 ****
 27  28  29  34  36  39  40  41  42  43  44  45  46 0
 3-21G
 ****


