%nproc=1
%NoSave
%Mem=1900MB
#P OB98/GEN NMR

erre ene a

0 1
  C      139.868      50.476     -23.699
  O      141.052      51.003     -24.263
  H      139.705      49.458     -24.061
  H      139.979      50.450     -22.612
  H      139.008      51.104     -23.951
  P      141.033      51.291     -25.841
  C      142.288      49.103     -26.470
  O      141.082      49.849     -26.549
  C      142.241      47.910     -27.425
  O      143.361      47.032     -27.132
  C      140.958      47.083     -27.307
  O      140.562      46.654     -28.611
  C      141.385      45.884     -26.476
  O      140.560      44.748     -26.703
  C      142.833      45.708     -26.922
  N      143.200      41.388     -24.227
  C      142.364      41.766     -25.216
  N      142.337      42.937     -25.888
  C      143.333      43.740     -25.477
  C      144.262      43.494     -24.480
  C      144.166      42.252     -23.830
  N      144.989      41.872     -22.796
  N      145.104      44.578     -24.323
  C      144.689      45.461     -25.211
  N      143.621      45.001     -25.928
  O      142.501      51.885     -26.097
  O      139.965      52.212     -26.321
  H      141.006      43.963     -26.322
  H      142.520      52.824     -25.835
  H      141.612      41.036     -25.502
  H      145.118      46.442     -25.367
  H      142.918      45.147     -27.862
  H      141.334      46.137     -25.410
  H      140.140      47.634     -26.841
  H      142.386      48.275     -28.449
  H      142.417      48.744     -25.443
  H      144.814      40.988     -22.349
  H      145.674      42.528     -22.446
  H      143.131      49.752     -26.730
  P      139.271      47.365     -29.244
  C      137.426      45.685     -28.544
  O      137.988      46.976     -28.362
  O      139.045      46.571     -30.615
  O      139.454      48.829     -29.486
  H      138.940      47.201     -31.352
  H      136.584      45.568     -27.895
  H      138.160      44.941     -28.314
  H      137.111      45.573     -29.560

 6  7  8  9  10  11  12  13  14  15  25  28  32  33  34  35 0
 6-311+G(2d,p)
 ****
 36  39  40 0
 6-311+G(2d,p)
 ****
 1  2  3  4  5  16  17  18  19  20  21  22  23  24 0
 3-21G
 ****
 26  27  29  30  31  37  38  41  42  43  44  45  46  47 0
 3-21G
 ****
 48 0
 3-21G
 ****


