%nproc=1
%NoSave
%Mem=1900MB
#P OB98/GEN NMR

erre ene a

0 1
  C       -8.877    -128.840     227.852
  O       -9.182    -127.932     226.776
  P       -8.072    -127.662     225.643
  C       -9.411    -128.726     223.665
  O       -8.247    -128.751     224.479
  C       -9.442    -129.959     222.756
  O       -9.440    -131.172     223.541
  C      -10.679    -130.059     221.872
  O      -10.614    -129.176     220.767
  C      -10.651    -131.531     221.479
  O       -9.759    -131.750     220.372
  C      -10.102    -132.191     222.761
  N      -11.138    -132.868     223.535
  C      -11.595    -134.081     223.029
  O      -11.207    -134.556     221.963
  N      -12.542    -134.722     223.778
  C      -13.119    -134.246     224.922
  O      -13.979    -134.857     225.542
  C      -12.658    -132.921     225.364
  C      -11.709    -132.300     224.656
  O       -6.729    -128.165     226.367
  O       -7.934    -126.241     225.199
  H       -8.875    -131.450     220.661
  H       -5.963    -127.677     226.007
  H      -12.864    -135.620     223.447
  H      -13.104    -132.497     226.252
  H      -11.357    -131.320     224.970
  H       -9.326    -132.923     222.502
  H      -11.635    -131.901     221.177
  H      -11.578    -129.865     222.471
  H       -8.530    -129.952     222.140
  H       -9.398    -127.825     223.047
  H      -10.296    -128.699     224.308
  P      -11.417    -127.789     220.900
  C       -9.306    -126.246     220.829
  O      -10.385    -126.768     221.578
  O      -12.464    -128.153     222.055
  O      -12.036    -127.346     219.613
  H      -12.093    -128.777     222.702
  H       -9.570    -126.115     219.777
  H       -8.452    -126.923     220.908
  H       -9.028    -125.275     221.249
  H       -9.716    -128.905     228.512
  H       -8.026    -128.481     228.392
  H       -8.662    -129.809     227.451

 3  4  5  6  7  8  9  10  11  12  13  23  28  29  30  31  32 0
 6-311+G(2d,p)
 ****
 33  34 0
 6-311+G(2d,p)
 ****
 1  2  14  15  16  17  18  19  20  21  22  24  25  26 0
 3-21G
 ****
 27  35  36  37  38  39  40  41  42  43  44  45 0
 3-21G
 ****


