%nproc=1
%NoSave
%Mem=1900MB
#P OB98/GEN NMR

erre ene a

0 1
  C      479.835    -385.691    -154.836
  O      479.774    -384.284    -155.003
  P      479.567    -383.713    -156.490
  C      477.197    -382.694    -156.664
  O      478.001    -383.854    -156.816
  C      476.413    -382.403    -157.933
  O      477.347    -382.134    -159.018
  C      475.496    -383.550    -158.388
  O      474.232    -383.015    -158.803
  C      476.193    -384.088    -159.628
  O      475.285    -384.733    -160.517
  C      476.819    -382.805    -160.176
  N      477.816    -382.780    -165.130
  C      476.728    -382.277    -164.446
  N      475.741    -381.738    -165.200
  N      476.613    -382.299    -163.146
  C      477.690    -382.835    -162.515
  C      478.827    -383.356    -163.082
  C      478.915    -383.379    -164.528
  O      479.814    -383.898    -165.192
  N      479.706    -383.792    -162.119
  C      479.099    -383.541    -160.978
  N      477.851    -383.001    -161.168
  O      480.250    -384.846    -157.397
  O      480.169    -382.378    -156.750
  H      475.820    -385.172    -161.204
  H      480.940    -384.441    -157.959
  H      477.847    -382.755    -166.131
  H      479.508    -383.754    -160.000
  H      476.042    -382.161    -160.621
  H      476.955    -384.814    -159.329
  H      475.778    -381.660    -166.204
  H      475.343    -384.326    -157.636
  H      474.943    -381.345    -164.716
  H      475.830    -381.483    -157.784
  H      477.844    -381.838    -156.434
  H      476.513    -382.847    -155.821
  P      472.936    -383.615    -158.061
  C      473.614    -382.437    -155.836
  O      473.302    -383.645    -156.505
  O      472.947    -385.152    -158.489
  O      471.663    -382.925    -158.423
  H      472.048    -385.528    -158.436
  H      473.408    -381.561    -156.460
  H      474.672    -382.438    -155.572
  H      473.016    -382.372    -154.925
  H      479.974    -385.922    -153.800
  H      480.654    -386.082    -155.402
  H      478.922    -386.131    -155.180

 3  4  5  6  7  8  9  10  11  12  23  26  30  31  33  0
 6-311+G(2d,p)
 ****
 35  36  37  38 0
 6-311+G(2d,p)
 ****
 1  2  13  14  15  16  17  18  19  20  21  22  24  25  27  28  29 0
 3-21G
 ****
 32  34  39  40  41  42  43  44  45  46  47  48  49 0
 3-21G
 ****


