%nproc=1
%NoSave
%Mem=1900MB
#P OB98/GEN NMR

erre ene a

0 1
  C      112.338    -186.098     686.916
  O      111.584    -186.294     688.100
  H      113.233    -186.715     686.971
  H      112.636    -185.054     686.825
  H      111.754    -186.392     686.036
  P      110.157    -185.562     688.181
  C      108.686    -187.627     688.781
  O      109.059    -186.677     687.799
  C      107.792    -188.703     688.154
  O      106.445    -188.173     688.045
  C      108.245    -189.110     686.745
  O      108.022    -190.496     686.574
  C      107.312    -188.321     685.837
  O      107.164    -188.879     684.541
  C      106.025    -188.327     686.667
  N      105.112    -187.246     686.279
  C      104.243    -187.490     685.223
  O      104.143    -188.569     684.644
  N      103.465    -186.436     684.828
  C      103.487    -185.180     685.367
  O      102.780    -184.270     684.971
  C      104.418    -184.981     686.485
  C      105.186    -186.005     686.874
  O      110.167    -184.592     686.906
  O      109.884    -184.826     689.451
  H      110.528    -183.729     687.132
  H      106.857    -189.809     684.655
  H      102.830    -186.601     684.069
  H      104.481    -183.994     686.922
  H      105.906    -185.890     687.682
  H      105.521    -189.288     686.582
  H      107.686    -187.298     685.711
  H      109.293    -188.875     686.543
  H      107.753    -189.554     688.821
  H      108.136    -187.112     689.585
  H      109.592    -188.081     689.199
  P      109.111    -191.349     685.737
  C      109.986    -192.533     687.903
  O      110.279    -191.693     686.790
  O      109.734    -190.194     684.828
  O      108.522    -192.511     685.019
  H      109.813    -189.330     685.268
  H      110.867    -192.658     688.497
  H      109.654    -193.488     687.552
  H      109.217    -192.084     688.496

 6  7  8  9  10  11  12  13  14  15  16  27  31  32  33  34  35 0
 6-311+G(2d,p)
 ****
 36  37 0
 6-311+G(2d,p)
 ****
 1  2  3  4  5  17  18  19  20  21  22  23  24  25 0
 3-21G
 ****
 26  28  29  30  38  39  40  41  42  43  44  45 0
 3-21G
 ****


