%nproc=1
%NoSave
%Mem=1900MB
#P OB98/GEN NMR

erre ene a

0 1
  C      -14.141      45.627     -22.340
  O      -15.237      45.876     -21.486
  H      -14.474      45.725     -23.378
  H      -13.767      44.613     -22.186
  H      -13.343      46.352     -22.155
  P      -14.962      45.779     -19.909
  C      -15.448      43.242     -19.673
  O      -14.471      44.272     -19.633
  C      -14.992      42.042     -18.842
  O      -16.089      41.090     -18.748
  C      -13.785      41.301     -19.433
  O      -12.940      40.867     -18.362
  C      -14.416      40.084     -20.087
  O      -13.491      39.013     -20.236
  C      -15.558      39.802     -19.116
  N      -16.744      35.032     -20.185
  C      -15.647      35.558     -19.532
  N      -14.716      34.681     -19.098
  N      -15.475      36.836     -19.325
  C      -16.495      37.597     -19.789
  C      -17.625      37.201     -20.460
  C      -17.795      35.784     -20.703
  O      -18.732      35.260     -21.296
  N      -18.403      38.281     -20.797
  C      -17.744      39.325     -20.329
  N      -16.581      38.959     -19.707
  O      -16.429      45.809     -19.271
  O      -14.079      46.840     -19.342
  H      -13.988      38.227     -20.547
  H      -16.415      46.218     -18.384
  H      -16.822      34.040     -20.329
  H      -18.059      40.356     -20.416
  H      -15.216      39.297     -18.204
  H      -14.802      40.347     -21.079
  H      -14.798      33.680     -19.193
  H      -13.206      41.901     -20.138
  H      -13.910      35.044     -18.604
  H      -14.784      42.382     -17.821
  H      -15.596      42.930     -20.712
  H      -16.393      43.628     -19.277
  P      -11.563      41.656     -18.137
  C       -9.986      40.204     -19.599
  O      -10.635      41.454     -19.431
  O      -10.829      40.782     -17.014
  O      -11.742      43.069     -17.690
  H      -10.835      41.262     -16.166
  H       -9.408      40.220     -20.499
  H      -10.719      39.427     -19.660
  H       -9.341      40.022     -18.765

 6  7  8  9  10  11  12  13  14  15  26  29  33  34 0
 6-311+G(2d,p)
 ****
 36  38  39  40  41 0
 6-311+G(2d,p)
 ****
 1  2  3  4  5  16  17  18  19  20  21  22  23  24  25 0
 3-21G
 ****
 27  28  30  31  32  35  37  42  43  44  45  46  47 0
 3-21G
 ****
 48  49 0
 3-21G
 ****


