%nproc=1
%NoSave
%Mem=1900MB
#P OB98/GEN NMR

erre ene a

0 1
  C     -104.417      79.741     342.566
  O     -103.686      78.583     342.214
  H     -104.965      79.544     343.491
  H     -105.132      79.995     341.780
  H     -103.734      80.578     342.732
  P     -102.888      78.625     340.824
  C     -101.362      80.482     341.813
  O     -102.188      80.065     340.733
  C     -100.136      81.211     341.262
  O      -99.283      80.273     340.564
  C     -100.461      82.295     340.248
  O     -100.905      83.499     340.855
  C      -99.119      82.457     339.557
  O      -98.255      83.346     340.277
  C      -98.567      81.019     339.560
  N      -98.664      80.399     338.240
  C      -97.716      80.811     337.306
  O      -96.841      81.640     337.555
  N      -97.831      80.266     336.060
  C      -98.807      79.407     335.648
  O      -98.884      78.998     334.497
  C      -99.795      79.021     336.670
  C      -99.681      79.530     337.900
  O     -104.055      78.699     339.733
  O     -101.974      77.468     340.589
  H     -104.140      77.840     339.283
  H      -98.638      84.239     340.171
  H      -97.150      80.549     335.369
  H     -100.585      78.343     336.377
  H     -100.402      79.269     338.668
  H      -97.511      81.015     339.858
  H      -99.243      82.866     338.557
  H     -101.195      81.927     339.521
  H      -99.571      81.625     342.107
  H     -101.027      79.611     342.382
  H     -101.941      81.133     342.474
  P     -101.784      84.506     339.965
  C     -104.045      83.175     340.182
  O     -102.978      83.622     339.360
  O     -100.793      84.748     338.731
  O     -102.193      85.735     340.700
  H     -100.194      83.993     338.595
  H     -104.734      82.605     339.594
  H     -104.549      84.020     340.603
  H     -103.657      82.563     340.969

 6  7  8  9  10  11  12  13  14  15  16  27  31  32  33  34  35 0
 6-311+G(2d,p)
 ****
 36  37 0
 6-311+G(2d,p)
 ****
 1  2  3  4  5  17  18  19  20  21  22  23  24  25 0
 3-21G
 ****
 26  28  29  30  38  39  40  41  42  43  44  45 0
 3-21G
 ****


