%nproc=1
%NoSave
%Mem=1900MB
#P OB98/GEN NMR

erre ene a

0 1
  C     -907.852     715.392     167.177
  O     -908.772     714.386     167.608
  P     -908.278     713.415     168.786
  C     -910.374     712.799     170.184
  O     -909.233     713.632     170.058
  C     -910.756     712.567     171.650
  O     -909.762     711.750     172.322
  C     -910.905     713.863     172.452
  O     -911.934     713.654     173.420
  C     -909.568     713.965     173.180
  O     -909.674     714.816     174.320
  C     -909.300     712.479     173.475
  N     -907.892     712.206     173.766
  C     -907.499     712.255     175.111
  O     -908.302     712.583     175.974
  N     -906.195     711.964     175.419
  C     -905.348     711.699     174.476
  N     -904.066     711.425     174.853
  C     -905.703     711.696     173.042
  C     -906.983     711.954     172.766
  O     -906.887     714.056     169.243
  O     -908.104     711.992     168.359
  H     -908.771     714.964     174.675
  H     -906.192     713.373     169.282
  H     -904.958     711.494     172.294
  H     -907.347     711.966     171.749
  H     -909.893     712.149     174.346
  H     -908.805     714.367     172.507
  H     -911.140     714.736     171.839
  H     -911.704     712.013     171.670
  H     -903.867     711.427     175.846
  H     -910.178     711.832     169.714
  H     -903.325     711.215     174.207
  H     -911.203     713.251     169.627
  P     -913.451     713.943     172.989
  C     -914.523     711.837     173.993
  O     -914.104     712.486     172.819
  O     -913.268     714.396     171.461
  O     -914.234     714.941     173.772
  H     -914.130     714.666     171.099
  H     -915.051     710.917     173.721
  H     -915.184     712.482     174.576
  H     -913.647     711.558     174.601
  H     -908.296     715.969     166.393
  H     -906.959     714.927     166.815
  H     -907.612     716.032     168.000

 3  4  5  6  7  8  9  10  11  12  13  21  23  27  28  29  30  32 0
 6-311+G(2d,p)
 ****
 34  35 0
 6-311+G(2d,p)
 ****
 1  2  14  15  16  17  18  19  20  22  24  25  26 0
 3-21G
 ****
 31  33  36  37  38  39  40  41  42  43  44  45  46 0
 3-21G
 ****


