%nproc=1
%NoSave
%Mem=1900MB
#P OB98/GEN NMR

erre ene a

0 1
  C      158.768    -629.859    -128.547
  O      159.499    -630.955    -129.058
  H      159.280    -629.475    -127.663
  H      157.766    -630.182    -128.260
  H      158.704    -629.059    -129.292
  P      159.063    -631.530    -130.489
  C      160.319    -629.830    -132.005
  O      159.070    -630.283    -131.502
  C      160.220    -629.590    -133.510
  O      159.165    -628.614    -133.755
  C      161.508    -629.041    -134.141
  O      161.642    -629.602    -135.452
  C      161.225    -627.555    -134.263
  O      162.003    -626.901    -135.255
  C      159.727    -627.573    -134.579
  N      159.083    -626.288    -134.314
  C      159.388    -625.231    -135.168
  O      160.088    -625.321    -136.172
  N      158.843    -624.021    -134.823
  C      158.068    -623.765    -133.729
  O      157.629    -622.653    -133.462
  C      157.791    -624.920    -132.862
  C      158.304    -626.106    -133.186
  O      157.507    -631.840    -130.292
  O      159.830    -632.718    -130.963
  H      157.378    -632.750    -129.968
  H      162.944    -627.014    -135.012
  H      159.052    -623.246    -135.431
  H      157.188    -624.753    -131.978
  H      158.137    -626.973    -132.557
  H      159.563    -627.858    -135.625
  H      161.415    -627.061    -133.303
  H      162.414    -629.242    -133.559
  H      159.910    -630.521    -133.996
  H      161.082    -630.590    -131.816
  H      160.602    -628.908    -131.487
  P      163.091    -630.158    -135.871
  C      162.743    -632.544    -134.850
  O      163.433    -631.305    -134.805
  O      164.024    -628.931    -135.451
  O      163.168    -630.553    -137.307
  H      163.717    -628.474    -134.652
  H      163.101    -633.180    -134.068
  H      162.912    -633.012    -135.797
  H      161.695    -632.373    -134.719

 6  7  8  9  10  11  12  13  14  15  16  27  31  32  33  34  35 0
 6-311+G(2d,p)
 ****
 36  37 0
 6-311+G(2d,p)
 ****
 1  2  3  4  5  17  18  19  20  21  22  23  24  25 0
 3-21G
 ****
 26  28  29  30  38  39  40  41  42  43  44  45 0
 3-21G
 ****


