%nproc=1
%NoSave
%Mem=1900MB
#P OB98/GEN NMR

erre ene a

0 1
  C      539.238      12.168    -607.423
  O      539.331      11.414    -606.223
  H      538.530      12.988    -607.265
  H      538.870      11.534    -608.233
  H      540.217      12.583    -607.679
  P      540.336      10.171    -606.243
  C      542.123      11.604    -604.989
  O      541.811      10.783    -606.113
  C      542.575      10.743    -603.802
  O      543.764       9.996    -604.196
  C      542.948      11.556    -602.559
  O      542.689      10.734    -601.396
  C      544.444      11.728    -602.732
  O      545.050      12.167    -601.535
  C      544.801      10.336    -603.238
  N      549.836      10.875    -602.570
  C      548.810      10.963    -601.706
  N      547.492      10.786    -601.955
  C      547.287      10.479    -603.251
  C      548.240      10.340    -604.247
  C      549.582      10.560    -603.856
  N      550.641      10.480    -604.747
  N      547.653      10.026    -605.457
  C      546.355       9.968    -605.189
  N      546.099      10.239    -603.868
  O      540.269       9.663    -607.762
  O      540.025       9.074    -605.279
  H      544.572      12.935    -601.172
  H      539.621       8.940    -607.845
  H      549.065      11.196    -600.680
  H      545.584       9.740    -605.912
  H      544.770       9.594    -602.438
  H      544.666      12.488    -603.494
  H      542.392      12.503    -602.458
  H      541.794      10.003    -603.580
  H      541.221      12.173    -604.719
  H      542.919      12.311    -605.267
  H      551.568      10.663    -604.380
  H      550.454      10.261    -605.710
  P      542.395      11.448    -599.981
  C      539.860      12.105    -599.920
  O      541.195      12.503    -600.174
  O      543.664      12.411    -599.829
  O      542.278      10.532    -598.808
  H      543.850      12.560    -598.879
  H      539.202      12.929    -600.099
  H      539.769      11.791    -598.901
  H      539.600      11.294    -600.568

 6  7  8  9  10  11  12  13  14  15  25  28  32  33  34  35 0
 6-311+G(2d,p)
 ****
 36  37  40 0
 6-311+G(2d,p)
 ****
 1  2  3  4  5  16  17  18  19  20  21  22  23  24 0
 3-21G
 ****
 26  27  29  30  31  38  39 41  42  43  44  45  46  47  48 0
 3-21G
 ****


