%nproc=1
%NoSave
%Mem=1900MB
#P OB98/GEN NMR

erre ene a

0 1
  C      104.587     408.915      29.608
  O      105.019     410.219      29.947
  H      104.831     408.218      30.414
  H      103.504     408.929      29.470
  H      105.059     408.590      28.676
  P      106.596     410.419      30.164
  C      106.869     411.317      27.747
  O      107.261     410.349      28.705
  C      107.936     412.401      27.626
  O      109.235     411.801      27.441
  C      107.752     413.350      26.447
  O      106.786     414.353      26.723
  C      109.151     413.940      26.336
  O      109.329     414.959      27.337
  C      110.035     412.725      26.657
  N      114.201     411.400      23.995
  C      114.049     412.025      25.186
  N      112.908     412.323      25.839
  C      111.841     411.891      25.149
  C      111.835     411.221      23.938
  C      113.086     410.980      23.347
  N      113.224     410.400      22.095
  N      110.540     410.952      23.532
  C      109.782     411.470      24.475
  N      110.519     412.040      25.475
  O      107.036     409.038      30.854
  O      106.977     411.598      30.995
  H      110.204     415.362      27.175
  H      107.075     409.162      31.820
  H      114.969     412.328      25.671
  H      108.701     411.457      24.473
  H      110.905     412.998      27.266
  H      109.346     414.402      25.363
  H      107.519     412.806      25.525
  H      107.961     412.957      28.571
  H      105.924     411.776      28.054
  H      114.060     410.698      21.599
  H      112.364     410.355      21.558
  H      106.722     410.819      26.785
  P      105.925     414.921      25.494
  C      103.963     413.245      25.665
  O      105.086     413.677      24.914
  O      107.037     415.187      24.374
  O      105.140     416.152      25.783
  H      106.995     416.118      24.083
  H      103.500     412.417      25.170
  H      103.261     414.048      25.750
  H      104.281     412.944      26.641

 6  7  8  9  10  11  12  13  14  15  25  28  32  33  34  35 0
 6-311+G(2d,p)
 ****
 36  39  40 0
 6-311+G(2d,p)
 ****
 1  2  3  4  5  16  17  18  19  20  21  22  23  24 0
 3-21G
 ****
 26  27  29  30  31  37  38  41  42  43  44  45  46  47  48 0
 3-21G
 ****


