%nproc=1
%NoSave
%Mem=1900MB
#P OB98/GEN NMR

erre ene a

0 1
  C      199.949     359.108     254.403
  O      200.958     360.088     254.539
  H      200.131     358.311     255.130
  H      199.985     358.677     253.399
  H      198.959     359.531     254.589
  P      200.775     361.499     253.802
  C      202.491     360.659     252.071
  O      201.227     361.277     252.275
  C      203.048     361.005     250.684
  O      202.139     360.476     249.674
  C      203.189     362.515     250.425
  O      204.301     362.691     249.535
  C      201.890     362.837     249.723
  O      201.960     364.068     249.037
  C      201.716     361.589     248.854
  N      200.350     361.424     248.368
  C      199.884     362.382     247.474
  O      200.558     363.347     247.108
  N      198.602     362.219     247.029
  C      197.732     361.248     247.437
  O      196.579     361.173     247.031
  C      198.262     360.290     248.425
  C      199.526     360.418     248.836
  O      201.405     362.670     254.471
  O      199.187     361.673     253.668
  H      202.565     363.990     248.271
  H      198.950     362.619     253.688
  H      198.255     362.901     246.371
  H      197.595     359.516     248.775
  H      199.942     359.720     249.559
  H      202.381     361.629     247.978
  H      201.067     362.909     250.445
  H      203.337     363.095     251.341
  H      204.008     360.485     250.549
  H      202.361     359.576     252.161
  H      203.195     360.997     252.843
  P      205.797     362.911     250.058
  C      205.720     365.470     250.383
  O      205.823     364.203     251.023
  O      206.828     362.944     248.985
  O      206.057     361.694     251.066
  H      207.010     361.489     251.087
  H      205.748     366.245     251.120
  H      204.797     365.524     249.844
  H      206.537     365.594     249.703

 6  7  8  9  10  11  12  13  14  15  16  26  31  32  33  34  35 0
 6-311+G(2d,p)
 ****
 36  37 0
 6-311+G(2d,p)
 ****
 1  2  3  4  5  17  18  19  20  21  22  23  24  25 0
 3-21G
 ****
 27  28  29  30  38  39  40  41  42  43  44  45 0
 3-21G
 ****


