%nproc=1
%NoSave
%Mem=1900MB
#P OB98/GEN NMR

erre ene a

0 1
  C     -897.750    -897.660    -892.360
  O     -897.970    -896.980    -893.600
  P     -898.610    -895.500    -893.540
  C     -897.460    -894.040    -895.450
  O     -897.520    -894.440    -894.080
  C     -896.120    -894.480    -896.070
  O     -895.910    -895.890    -895.890
  C     -895.970    -894.140    -897.530
  O     -895.480    -892.820    -897.780
  C     -895.010    -895.270    -897.990
  O     -893.630    -894.900    -897.650
  C     -895.490    -896.440    -897.150
  N     -896.610    -897.300    -897.720
  C     -896.300    -898.480    -898.430
  O     -895.190    -898.910    -898.600
  N     -897.410    -899.200    -898.860
  C     -898.720    -898.940    -898.590
  O     -899.650    -899.640    -898.970
  C     -898.970    -897.760    -897.720
  C     -897.950    -897.050    -897.360
  O     -898.690    -895.180    -891.960
  O     -899.930    -895.370    -894.190
  H     -893.670    -894.690    -896.690
  H     -899.610    -895.080    -891.670
  H     -897.240    -900.000    -899.440
  H     -900.000    -897.580    -897.440
  H     -898.120    -896.140    -896.710
  H     -894.660    -897.190    -896.990
  H     -895.010    -895.350    -899.110
  H     -896.950    -894.330    -898.040
  H     -895.270    -893.960    -895.500
  H     -897.560    -892.960    -895.530
  H     -898.300    -894.490    -895.990
  P     -896.510    -891.650    -898.060
  C     -895.390    -890.080    -896.340
  O     -896.600    -890.780    -896.710
  O     -897.890    -892.070    -898.620
  O     -895.750    -890.710    -899.060
  H     -895.970    -890.900    -900.000
  H     -895.610    -889.390    -895.530
  H     -895.040    -889.500    -897.210
  H     -894.610    -890.800    -896.050
  H     -897.325    -898.623    -892.552
  H     -898.682    -897.777    -891.847
  H     -897.079    -897.088    -891.754

 3  4  5  6  7  8  9  10  11  12  13  23  28  29  30  31  32 0
 6-311+G(2d,p)
 ****
 33  34 0
 6-311+G(2d,p)
 ****
 1  2  14  15  16  17  18  19  20  21  22  24  25  26  27 0
 3-21G
 ****
 35  36  37  38  39  40  41  42  43  44  45 0
 3-21G
 ****


