%nproc=1
%NoSave
%Mem=1900MB
#P OB98/GEN NMR

erre ene a

0 1
  C     -890.640      17.831    -343.271
  O     -891.500      18.251    -342.224
  P     -892.310      17.178    -341.347
  C     -893.580      16.295    -343.409
  O     -893.690      16.918    -342.137
  C     -894.890      15.596    -343.782
  O     -895.100      14.434    -342.956
  C     -896.140      16.458    -343.587
  O     -896.260      17.394    -344.634
  C     -897.220      15.399    -343.539
  O     -897.610      15.019    -344.864
  C     -896.530      14.231    -342.817
  N     -896.920      14.129    -341.412
  C     -898.250      13.759    -341.177
  O     -899.020      13.580    -342.121
  N     -898.690      13.671    -339.879
  C     -897.860      13.943    -338.899
  N     -898.370      13.833    -337.625
  C     -896.470      14.363    -339.105
  C     -896.070      14.436    -340.376
  O     -892.460      17.525    -339.897
  O     -891.490      15.825    -341.599
  H     -898.110      15.806    -345.248
  H     -890.640      15.824    -341.107
  H     -895.840      14.587    -338.265
  H     -895.060      14.740    -340.625
  H     -896.760      13.285    -343.304
  H     -898.140      15.761    -343.023
  H     -896.080      16.973    -342.609
  H     -894.820      15.273    -344.842
  H     -899.350      13.580    -337.547
  H     -892.780      15.546    -343.357
  H     -897.840      14.051    -336.818
  H     -893.310      17.033    -344.156
  P     -896.530      18.941    -344.291
  C     -899.110      18.746    -344.070
  O     -898.010      19.313    -344.825
  O     -895.470      19.898    -344.703
  O     -896.720      18.947    -342.697
  H     -896.220      19.701    -342.319
  H     -900.000      19.321    -344.319
  H     -898.910      18.795    -343.001
  H     -899.240      17.715    -344.386
  H     -890.195      18.688    -343.733
  H     -891.204      17.286    -343.999
  H     -889.872      17.202    -342.871

 3  4  5  6  7  8  9  10  11  12  13  23  27  28  29  30  32 0
 6-311+G(2d,p)
 ****
 34  35 0
 6-311+G(2d,p)
 ****
 1  2  14  15  16  17  18  19  20  21  22  24  25  26 0
 3-21G
 ****
 31  33  36  37  38  39  40  41  42  43  44  45  46 0
 3-21G
 ****


