%nproc=1
%NoSave
%Mem=1900MB
#P OB98/GEN NMR

erre ene a

0 1
  C      -97.263    -771.503    1217.789
  O      -96.880    -771.705    1219.157
  P      -95.422    -772.319    1219.480
  C      -94.168    -770.024    1219.633
  O      -94.308    -771.271    1218.949
  C      -92.748    -769.885    1220.187
  O      -91.753    -769.996    1219.143
  C      -92.483    -768.546    1220.845
  O      -92.969    -768.517    1222.180
  C      -90.966    -768.519    1220.830
  O      -90.437    -769.298    1221.932
  C      -90.618    -769.148    1219.494
  N      -87.974    -765.032    1217.997
  C      -87.976    -765.731    1219.163
  N      -88.726    -766.813    1219.482
  C      -89.515    -767.159    1218.455
  C      -89.622    -766.543    1217.217
  C      -88.797    -765.427    1216.995
  N      -88.783    -764.714    1215.821
  N      -90.554    -767.177    1216.433
  C      -90.996    -768.176    1217.178
  N      -90.408    -768.194    1218.411
  O      -95.315    -773.528    1218.455
  O      -95.261    -772.760    1220.891
  H      -90.950    -769.049    1222.720
  H      -94.801    -774.249    1218.847
  H      -87.279    -765.391    1219.941
  H      -91.736    -768.917    1216.857
  H      -89.736    -769.786    1219.541
  H      -90.565    -767.487    1220.964
  H      -92.894    -767.724    1220.236
  H      -92.583    -770.691    1220.910
  H      -94.901    -769.973    1220.438
  H      -88.145    -763.949    1215.722
  H      -89.383    -765.013    1215.050
  H      -94.413    -769.217    1218.926
  P      -94.286    -767.648    1222.470
  C      -96.076    -769.504    1221.975
  O      -95.438    -768.300    1221.538
  O      -93.973    -766.250    1221.751
  O      -94.625    -767.491    1223.917
  H      -94.425    -765.531    1222.222
  H      -96.991    -769.617    1221.407
  H      -96.324    -769.449    1223.032
  H      -95.430    -770.355    1221.774
  H      -98.251    -771.093    1217.752
  H      -97.246    -772.440    1217.272
  H      -96.578    -770.826    1217.323

 3  4  5  6  7  8  9  10  11  12  22  25  29  30  31  32 0
 6-311+G(2d,p)
 ****
 33  36  37 0
 6-311+G(2d,p)
 ****
 1  2  13  14  15  16  17  18  19  20  21  23  24  26 0
 3-21G
 ****
 27  28  34  35  38  39  40  41  42  43  44  45  46  47  48 0
 3-21G
 ****


