%nproc=1
%NoSave
%Mem=1900MB
#P OB98/GEN NMR

erre ene a

0 1
  C       -7.546     181.338    -168.695
  O       -7.871     181.685    -170.026
  H       -8.459     181.172    -168.117
  H       -6.961     180.414    -168.704
  H       -6.951     182.129    -168.232
  P       -8.751     183.014    -170.217
  C      -10.997     181.870    -170.805
  O      -10.267     182.621    -169.847
  C      -12.492     182.132    -170.645
  O      -12.737     183.537    -170.908
  C      -13.379     181.308    -171.595
  O      -14.429     180.661    -170.866
  C      -13.997     182.343    -172.519
  O      -15.325     182.013    -172.911
  C      -13.945     183.614    -171.677
  N      -16.893     186.560    -174.611
  C      -17.203     185.677    -173.635
  N      -16.368     184.996    -172.825
  C      -15.088     185.327    -173.076
  C      -14.621     186.225    -174.021
  C      -15.589     186.845    -174.828
  N      -15.271     187.702    -175.858
  N      -13.241     186.297    -173.991
  C      -12.880     185.420    -173.073
  N      -13.960     184.799    -172.504
  O       -8.787     183.202    -171.809
  O       -8.207     184.223    -169.534
  H      -15.866     181.976    -172.100
  H       -8.370     184.057    -172.032
  H      -18.261     185.488    -173.491
  H      -11.859     185.168    -172.814
  H      -14.786     183.672    -170.975
  H      -13.378     182.432    -173.418
  H      -12.812     180.560    -172.157
  H      -12.773     181.946    -169.600
  H      -10.804     180.800    -170.657
  H      -16.019     188.010    -176.462
  H      -14.299     187.830    -176.095
  H      -10.664     182.152    -171.810
  P      -14.444     179.052    -170.923
  C      -16.386     178.983    -172.651
  O      -15.045     178.609    -172.347
  O      -15.592     178.661    -169.877
  O      -13.140     178.425    -170.559
  H      -15.233     178.062    -169.195
  H      -16.645     178.622    -173.624
  H      -16.472     180.049    -172.632
  H      -17.048     178.559    -171.925

 6  7  8  9  10  11  12  13  14  15  25  28  32  33  34  35 0
 6-311+G(2d,p)
 ****
 36  39  40 0
 6-311+G(2d,p)
 ****
 1  2  3  4  5  16  17  18  19  20  21  22  23  24 0
 3-21G
 ****
 26  27  29  30  31  37  38  41  42  43  44  45  46  47  48 0
 3-21G
 ****


