%nproc=1
%NoSave
%Mem=1900MB
#P OB98/GEN NMR

erre ene a

0 1
  C       24.511     284.527      53.260
  O       23.658     285.072      52.268
  P       24.244     286.191      51.286
  C       23.534     288.059      52.947
  O       24.572     287.490      52.168
  C       23.501     289.579      52.768
  O       24.714     290.156      53.345
  C       23.431     290.035      51.303
  O       22.657     291.243      51.266
  C       24.883     290.348      50.988
  O       25.040     291.197      49.860
  C       25.320     290.969      52.319
  N       26.773     291.029      52.470
  C       27.403     292.210      52.096
  O       26.816     293.197      51.652
  N       28.771     292.214      52.191
  C       29.557     291.148      52.525
  O       30.781     291.179      52.479
  C       28.834     289.925      52.907
  C       27.499     289.918      52.865
  O       22.966     286.629      50.424
  O       25.369     285.731      50.419
  H       24.769     290.689      49.073
  H       22.980     286.194      49.550
  H       29.247     293.065      51.937
  H       29.426     289.064      53.199
  H       26.940     289.027      53.120
  H       24.901     291.978      52.423
  H       25.422     289.415      50.786
  H       23.004     289.285      50.632
  H       22.652     289.979      53.335
  H       23.706     287.824      54.000
  H       22.572     287.619      52.660
  P       21.771     291.524      49.954
  C       23.686     293.006      48.967
  O       22.788     291.930      48.788
  O       21.073     292.908      50.358
  O       20.800     290.432      49.642
  H       21.691     293.531      50.781
  H       24.022     293.079      50.005
  H       23.195     293.940      48.682
  H       24.556     292.853      48.325
  H       23.974     283.798      53.830
  H       24.849     285.308      53.908
  H       25.353     284.063      52.791

 3  4  5  6  7  8  9  10  11  12  13  23  28  29  30  31  32 0
 6-311+G(2d,p)
 ****
 33  34 0
 6-311+G(2d,p)
 ****
 1  2  14  15  16  17  18  19  20  21  22  24  25  26 0
 3-21G
 ****
 27  35  36  37  38  39  40  41  42  43  44  45 0
 3-21G
 ****


