%nproc=1
%NoSave
%Mem=1900MB
#P OB98/GEN NMR

erre ene a

0 1
  C       60.009    -387.776     120.934
  O       59.804    -386.395     120.687
  P       59.137    -385.967     119.291
  C       56.908    -385.254     120.443
  O       57.547    -386.082     119.483
  C       56.303    -384.015     119.773
  O       55.538    -384.454     118.620
  C       55.346    -383.200     120.660
  O       55.480    -381.833     120.260
  C       53.977    -383.721     120.266
  O       52.928    -382.810     120.588
  C       54.186    -383.957     118.776
  N       49.416    -384.687     117.238
  C       49.993    -383.577     117.829
  N       49.205    -382.487     117.975
  N       51.240    -383.533     118.236
  C       51.908    -384.695     118.009
  C       51.437    -385.868     117.482
  C       50.073    -385.890     116.996
  O       49.541    -386.817     116.397
  N       52.392    -386.850     117.498
  C       53.470    -386.253     117.962
  N       53.236    -384.924     118.251
  O       59.495    -387.199     118.332
  O       59.591    -384.652     118.729
  H       52.091    -383.183     120.241
  H       60.307    -387.029     117.828
  H       48.455    -384.650     116.927
  H       54.430    -386.709     118.117
  H       54.085    -383.040     118.181
  H       53.778    -384.661     120.794
  H       48.247    -382.441     117.650
  H       55.556    -383.304     121.728
  H       49.618    -381.650     118.364
  H       57.119    -383.387     119.406
  H       57.654    -384.919     121.177
  H       56.135    -385.826     120.971
  P       55.102    -380.699     121.336
  C       57.568    -380.393     122.083
  O       56.241    -380.703     122.465
  O       53.833    -381.325     122.086
  O       54.768    -379.366     120.747
  H       53.226    -380.608     122.365
  H       58.123    -380.050     122.967
  H       57.597    -379.610     121.325
  H       58.055    -381.292     121.691
  H       60.458    -387.903     121.897
  H       60.655    -388.181     120.183
  H       59.069    -388.286     120.908

 3  4  5  6  7  8  9  10  11  12  23  26  30  31 0
 6-311+G(2d,p)
 ****
 33  35  36  37  38 0
 6-311+G(2d,p)
 ****
 1  2  13  14  15  16  17  18  19  20  21  22  24  25 0
 3-21G
 ****
 27  28  29  32  34  39  40  41  42  43  44  45  46  47  48  49 0
 3-21G
 ****


