%nproc=1
%NoSave
%Mem=1900MB
#P OB98/GEN NMR

erre ene a

0 1
  C      267.571     553.152     121.108
  O      267.490     554.545     121.336
  H      266.832     552.653     121.739
  H      268.566     552.778     121.370
  H      267.350     552.921     120.062
  P      268.505     555.506     120.556
  C      267.368     555.070     118.276
  O      268.560     554.966     119.044
  C      267.666     554.810     116.803
  O      266.445     554.810     116.038
  C      268.578     555.853     116.153
  O      269.937     555.579     116.453
  C      268.248     555.634     114.686
  O      268.912     554.445     114.214
  C      266.726     555.400     114.736
  N      265.033     558.944     111.521
  C      265.961     557.940     111.324
  N      266.543     557.892     110.107
  N      266.299     557.068     112.239
  C      265.688     557.281     113.429
  C      264.766     558.250     113.752
  C      264.353     559.166     112.708
  O      263.514     560.055     112.835
  N      264.439     558.211     115.083
  C      265.124     557.185     115.552
  N      265.905     556.591     114.589
  O      269.852     555.691     121.185
  O      267.712     556.890     120.417
  H      268.712     553.734     114.849
  H      267.912     557.486     121.162
  H      264.822     559.587     110.779
  H      265.089     556.827     116.576
  H      266.394     554.690     113.972
  H      268.574     556.459     114.052
  H      266.438     558.620     109.413
  H      268.289     556.870     116.436
  H      267.271     557.198     109.963
  H      268.095     553.805     116.718
  H      266.974     556.080     118.415
  H      266.620     554.352     118.632
  P      271.094     556.647     116.141
  C      271.219     557.200     118.664
  O      271.045     557.695     117.351
  O      271.033     557.258     114.781
  O      272.451     555.860     116.441
  H      272.767     555.326     115.670
  H      271.162     558.010     119.361
  H      272.176     556.728     118.743
  H      270.451     556.488     118.881

 6  7  8  9  10  11  12  13  14  15  26  29  33  34 0
 6-311+G(2d,p)
 ****
 36  38  39  40  41 0
 6-311+G(2d,p)
 ****
 1  2  3  4  5  16  17  18  19  20  21  22  23  24  25 0
 3-21G
 ****
 27  28  30  31  32  35  37  42  43  44  45  46  47 0
 3-21G
 ****
 48  49 0
 3-21G
 ****


