%nproc=1
%NoSave
%Mem=1900MB
#P OB98/GEN NMR

erre ene a

0 1
  C      -79.573     121.029     -24.188
  O      -78.495     120.465     -24.931
  P      -78.802     119.244     -25.921
  C      -81.274     119.240     -26.866
  O      -79.932     119.664     -26.967
  C      -82.085     119.843     -28.026
  O      -81.966     121.282     -28.027
  C      -81.626     119.356     -29.399
  O      -82.251     118.139     -29.767
  C      -82.001     120.524     -30.287
  O      -83.414     120.509     -30.565
  C      -81.645     121.723     -29.375
  N      -80.250     122.219     -29.392
  C      -79.996     123.562     -29.661
  O      -80.865     124.397     -29.899
  N      -78.678     123.940     -29.638
  C      -77.629     123.179     -29.214
  O      -76.477     123.589     -29.160
  C      -77.969     121.816     -28.799
  C      -79.235     121.401     -28.915
  O      -79.527     118.170     -24.986
  O      -77.591     118.675     -26.594
  H      -83.877     120.602     -29.713
  H      -78.982     117.364     -24.907
  H      -78.468     124.891     -29.901
  H      -77.174     121.190     -28.413
  H      -79.498     120.391     -28.610
  H      -82.287     122.584     -29.601
  H      -81.503     120.465     -31.251
  H      -80.536     119.255     -29.418
  H      -83.142     119.590     -27.877
  H      -81.709     119.544     -25.912
  H      -81.318     118.147     -26.902
  P      -81.377     116.806     -29.915
  C      -79.796     116.808     -27.894
  O      -81.029     116.349     -28.414
  O      -80.219     116.882     -30.852
  O      -82.450     115.704     -30.371
  H      -82.445     115.598     -31.350
  H      -79.755     116.567     -26.829
  H      -79.710     117.891     -28.016
  H      -78.969     116.308     -28.403
  H      -79.206     121.828     -23.579
  H      -80.009     120.276     -23.565
  H      -80.313     121.406     -24.863

 3  4  5  6  7  8  9  10  11  12  13  23  28  29  30  31  32 0
 6-311+G(2d,p)
 ****
 33  34 0
 6-311+G(2d,p)
 ****
 1  2  14  15  16  17  18  19  20  21  22  24  25  26  27 0
 3-21G
 ****
 35  36  37  38  39  40  41  42  43  44  45 0
 3-21G
 ****


