%nproc=1
%NoSave
%Mem=1900MB
#P OB98/GEN NMR

erre ene a

0 1
  C     -264.634    -181.162    -169.784
  O     -263.465    -180.325    -169.747
  P     -262.548    -180.023    -171.027
  C     -260.134    -180.489    -171.825
  O     -261.042    -180.494    -170.721
  C     -258.681    -180.644    -171.372
  O     -258.230    -179.423    -170.685
  C     -258.421    -181.824    -170.408
  O     -257.160    -182.385    -170.771
  C     -258.366    -181.123    -169.054
  O     -257.742    -181.888    -168.038
  C     -257.604    -179.852    -169.453
  N     -257.620    -178.780    -168.467
  C     -256.399    -178.433    -167.861
  O     -255.371    -179.051    -168.100
  N     -256.380    -177.394    -166.957
  C     -257.486    -176.762    -166.682
  N     -257.391    -175.728    -165.783
  C     -258.788    -177.091    -167.278
  C     -258.781    -178.098    -168.148
  O     -262.648    -178.621    -171.523
  O     -263.044    -181.062    -172.151
  H     -262.991    -180.618    -173.032
  H     -258.404    -182.526    -167.700
  H     -259.676    -176.526    -167.026
  H     -259.697    -178.394    -168.660
  H     -256.566    -180.111    -169.694
  H     -259.388    -180.903    -168.728
  H     -259.188    -182.606    -170.473
  H     -258.053    -180.741    -172.262
  H     -256.481    -175.518    -165.402
  H     -260.240    -179.533    -172.360
  H     -258.183    -175.161    -165.507
  H     -260.408    -181.294    -172.513
  P     -257.021    -183.963    -170.998
  C     -255.765    -185.932    -169.824
  O     -256.101    -184.558    -169.827
  O     -256.028    -184.033    -172.259
  O     -258.287    -184.698    -171.300
  H     -256.183    -184.858    -172.744
  H     -254.705    -186.040    -169.598
  H     -255.971    -186.407    -170.791
  H     -256.355    -186.441    -169.044
  H     -265.071    -181.207    -168.809
  H     -264.358    -182.147    -170.097
  H     -265.343    -180.754    -170.474

 3  4  5  6  7  8  9  10  11  12  13  24  27  28  29  30  32 0
 6-311+G(2d,p)
 ****
 34  35 0
 6-311+G(2d,p)
 ****
 1  2  14  15  16  17  18  19  20  21  22  23  25  26 0
 3-21G
 ****
 31  33  36  37  38  39  40  41  42  43  44  45  46 0
 3-21G
 ****


