%nproc=1
%NoSave
%Mem=1900MB
#P OB98/GEN NMR

erre ene a

0 1
  C     -977.781    -374.074     795.919
  O     -977.316    -372.745     796.076
  P     -977.544    -371.736     794.850
  C     -979.431    -370.507     796.160
  O     -979.044    -371.182     794.969
  C     -979.904    -369.093     795.835
  O     -981.073    -369.138     794.989
  C     -980.316    -368.263     797.051
  O     -979.170    -367.808     797.761
  C     -981.133    -367.174     796.373
  O     -980.256    -366.191     795.798
  C     -981.864    -367.948     795.274
  N     -986.742    -368.290     793.756
  C     -985.648    -367.811     793.143
  N     -984.384    -367.733     793.620
  C     -984.310    -368.230     794.867
  C     -985.353    -368.728     795.637
  C     -986.620    -368.758     795.024
  N     -987.744    -369.251     795.658
  N     -984.903    -369.123     796.872
  C     -983.615    -368.878     796.861
  N     -983.209    -368.344     795.663
  O     -977.603    -372.708     793.586
  O     -976.479    -370.689     794.698
  H     -979.821    -365.721     796.536
  H     -977.215    -372.280     792.797
  H     -985.793    -367.436     792.125
  H     -982.940    -369.059     797.678
  H     -981.942    -367.385     794.339
  H     -981.801    -366.652     797.073
  H     -980.949    -368.861     797.722
  H     -979.101    -368.591     795.275
  H     -978.578    -370.447     796.838
  H     -988.632    -369.090     795.205
  H     -987.686    -369.463     796.646
  H     -980.224    -371.083     796.656
  P     -979.251    -367.794     799.367
  C     -977.974    -369.989     799.781
  O     -979.238    -369.348     799.755
  O     -980.782    -367.380     799.600
  O     -978.237    -366.939     800.040
  H     -981.395    -367.917     799.056
  H     -978.103    -371.014     800.110
  H     -977.300    -369.466     800.463
  H     -977.541    -369.991     798.763
  H     -977.566    -374.634     796.805
  H     -977.291    -374.527     795.083
  H     -978.838    -374.065     795.751

 3  4  5  6  7  8  9  10  11  12  22  25  29  30  31  32 0
 6-311+G(2d,p)
 ****
 33  36  37 0
 6-311+G(2d,p)
 ****
 1  2  13  14  15  16  17  18  19  20  21  23  24  26 0
 3-21G
 ****
 27  28  34  35  38  39  40  41  42  43  44  45  46  47  48 0
 3-21G
 ****


