%nproc=1
%NoSave
%Mem=1900MB
#P OB98/GEN NMR

erre ene a

0 1
  C     -148.875     141.109    -332.179
  O     -148.265     141.092    -333.472
  P     -149.251     140.878    -334.725
  C     -149.076     138.299    -334.836
  O     -149.913     139.423    -334.622
  C     -149.819     137.149    -335.530
  O     -148.949     136.003    -335.728
  C     -151.031     136.644    -334.732
  O     -152.026     136.240    -335.693
  C     -150.506     135.418    -334.033
  O     -151.562     134.542    -333.628
  C     -149.559     134.857    -335.104
  N     -148.558     133.932    -334.567
  C     -148.882     132.568    -334.572
  O     -149.999     132.197    -334.950
  N     -147.957     131.663    -334.109
  C     -146.826     132.085    -333.642
  N     -145.950     131.136    -333.194
  C     -146.468     133.509    -333.560
  C     -147.367     134.365    -334.040
  O     -148.243     140.755    -335.971
  O     -150.220     142.008    -334.923
  H     -151.180     133.869    -333.019
  H     -148.525     141.354    -336.687
  H     -145.511     133.818    -333.135
  H     -147.193     135.433    -334.025
  H     -150.125     134.322    -335.879
  H     -149.935     135.711    -333.134
  H     -151.458     137.402    -334.061
  H     -150.140     137.495    -336.517
  H     -146.229     130.162    -333.275
  H     -148.679     137.941    -333.880
  H     -145.043     131.349    -332.806
  H     -148.203     138.611    -335.431
  P     -153.348     137.137    -335.847
  C     -154.654     135.907    -333.996
  O     -154.031     137.120    -334.390
  O     -154.314     136.148    -336.662
  O     -153.227     138.461    -336.525
  H     -155.139     136.603    -336.892
  H     -154.964     135.998    -332.956
  H     -153.950     135.076    -334.090
  H     -155.535     135.724    -334.620
  H     -148.123     141.257    -331.432
  H     -149.371     140.177    -332.006
  H     -149.587     141.906    -332.131

 3  4  5  6  7  8  9  10  11  12  13  21  23  27  28  29  30  32 0
 6-311+G(2d,p)
 ****
 34  35 0
 6-311+G(2d,p)
 ****
 1  2  14  15  16  17  18  19  20  22  24  25  26 0
 3-21G
 ****
 31  33  36  37  38  39  40  41  42  43  44  45  46 0
 3-21G
 ****


