%nproc=1
%NoSave
%Mem=1900MB
#P OB98/GEN NMR

erre ene a

0 1
  C     -238.055     -97.301       5.975
  O     -237.746     -95.976       6.358
  H     -239.136     -97.460       6.007
  H     -237.708     -97.461       4.951
  H     -237.552     -98.013       6.634
  P     -238.167     -95.534       7.843
  C     -240.562     -94.712       7.256
  O     -239.763     -95.691       7.908
  C     -241.729     -94.321       8.154
  O     -242.690     -95.398       8.221
  C     -241.339     -94.028       9.600
  O     -240.825     -92.717       9.761
  C     -242.685     -94.181      10.287
  O     -243.487     -93.008      10.052
  C     -243.277     -95.389       9.549
  N     -244.933    -100.176      10.276
  C     -245.451     -99.139       9.585
  N     -244.950     -97.894       9.446
  C     -243.791     -97.769      10.110
  C     -243.145     -98.735      10.862
  C     -243.761     -99.998      10.928
  N     -243.243    -101.055      11.643
  N     -241.990     -98.226      11.427
  C     -241.928     -96.983      10.993
  N     -242.998     -96.656      10.202
  O     -237.957     -93.947       7.838
  O     -237.428     -96.204       8.953
  H     -243.540     -92.895       9.085
  H     -237.869     -93.617       8.751
  H     -246.394     -99.333       9.082
  H     -241.133     -96.285      11.220
  H     -244.364     -95.316       9.431
  H     -242.601     -94.300      11.368
  H     -240.648     -94.784       9.991
  H     -242.231     -93.455       7.704
  H     -240.947     -95.129       6.321
  H     -243.850    -101.849      11.778
  H     -242.455    -100.885      12.250
  H     -239.946     -93.837       7.030
  P     -239.512     -92.549      10.668
  C     -240.775     -92.304      12.930
  O     -239.913     -93.098      12.121
  O     -239.418     -90.965      10.879
  O     -238.265     -93.120      10.078
  H     -238.495     -90.693      11.044
  H     -240.948     -92.801      13.862
  H     -241.707     -92.160      12.424
  H     -240.318     -91.354      13.112

 6  7  8  9  10  11  12  13  14  15  25  28  32  33  34  35 0
 6-311+G(2d,p)
 ****
 36  39  40 0
 6-311+G(2d,p)
 ****
 1  2  3  4  5  16  17  18  19  20  21  22  23  24 0
 3-21G
 ****
 26  27  29  30  31  37  38  41  42  43  44  45  46  47 0
 3-21G
 ****
 48 0
 3-21G
 ****


