%nproc=1
%NoSave
%Mem=1900MB
#P OB98/GEN NMR

erre ene a

0 1
  C       77.090      86.785     -52.013
  O       76.517      87.885     -52.693
  H       77.973      87.131     -51.470
  H       77.395      86.021     -52.733
  H       76.377      86.364     -51.299
  P       75.103      87.631     -53.411
  C       72.624      87.907     -52.592
  O       73.997      87.806     -52.263
  C       71.859      88.648     -51.493
  O       71.681      87.752     -50.367
  C       72.574      89.901     -50.985
  O       71.589      90.886     -50.667
  C       73.242      89.427     -49.705
  O       73.515      90.503     -48.812
  C       72.219      88.399     -49.196
  N       72.811      87.435     -48.271
  C       73.246      87.932     -47.039
  O       73.136      89.131     -46.780
  N       73.833      87.073     -46.147
  C       74.031      85.836     -46.480
  N       74.642      85.041     -45.561
  C       73.629      85.278     -47.785
  C       73.023      86.121     -48.620
  O       75.143      86.051     -53.664
  O       74.881      88.447     -54.640
  H       74.126      91.131     -49.257
  H       75.465      85.546     -52.899
  H       73.825      84.242     -48.022
  H       72.687      85.795     -49.596
  H       71.390      88.904     -48.683
  H       74.193      88.934     -49.937
  H       73.283      90.306     -51.709
  H       70.858      88.889     -51.868
  H       74.921      85.469     -44.687
  H       72.191      86.911     -52.726
  H       74.895      84.079     -45.732
  H       72.541      88.444     -53.542
  P       70.915      91.735     -51.844
  C       69.732      90.656     -53.875
  O       69.701      90.899     -52.473
  O       71.857      92.333     -52.833
  O       70.146      92.897     -51.040
  H       70.267      93.731     -51.535
  H       68.868      90.092     -54.158
  H       70.615      90.104     -54.122
  H       69.736      91.589     -54.399

 6  7  8  9  10  11  12  13  14  15  16  26  30  31  32  33  35 0
 6-311+G(2d,p)
 ****
 37  38 0
 6-311+G(2d,p)
 ****
 1  2  3  4  5  17  18  19  20  21  22  23  24  25 0
 3-21G
 ****
 27  28  29  34  36  39  40  41  42  43  44  45  46 0
 3-21G
 ****


