%nproc=1
%NoSave
%Mem=1900MB
#P OB98/GEN NMR

erre ene a

0 1
  C     -898.951    -894.400    -857.513
  O     -898.751    -894.750    -858.875
  P     -897.251    -894.890    -859.444
  C     -897.641    -897.160    -860.663
  O     -897.251    -895.790    -860.769
  C     -897.051    -897.980    -861.794
  O     -897.481    -897.480    -863.100
  C     -895.531    -897.920    -861.832
  O     -894.851    -898.570    -860.783
  C     -895.221    -898.370    -863.258
  O     -895.241    -899.810    -863.381
  C     -896.411    -897.770    -864.054
  N     -896.041    -896.570    -864.793
  C     -895.001    -896.750    -865.731
  O     -894.401    -897.800    -865.856
  N     -894.651    -895.590    -866.432
  C     -895.201    -894.350    -866.289
  O     -894.841    -893.380    -866.944
  C     -896.291    -894.220    -865.292
  C     -896.641    -895.330    -864.596
  O     -896.211    -895.260    -858.454
  O     -896.961    -893.420    -860.025
  H     -894.991    -900.000    -864.309
  H     -896.041    -893.180    -859.805
  H     -893.911    -895.700    -867.124
  H     -896.731    -893.270    -865.150
  H     -897.441    -895.250    -863.860
  H     -896.811    -898.490    -864.763
  H     -894.231    -898.030    -863.603
  H     -895.231    -896.870    -861.772
  H     -897.431    -899.000    -861.739
  H     -898.741    -897.210    -860.691
  H     -897.331    -897.540    -859.679
  P     -893.501    -898.050    -860.161
  C     -894.371    -897.830    -857.731
  O     -893.451    -898.430    -858.601
  O     -893.021    -896.700    -860.519
  O     -892.421    -899.110    -860.779
  H     -891.581    -898.640    -860.906
  H     -894.231    -898.190    -856.742
  H     -895.411    -898.060    -858.025
  H     -894.241    -896.720    -857.768
  H     -900.000    -894.352    -857.307
  H     -898.506    -893.446    -857.321
  H     -898.498    -895.138    -856.885

 3  4  5  6  7  8  9  10  11  12  13  23  28  29  30  31  32 0
 6-311+G(2d,p)
 ****
 33  34 0
 6-311+G(2d,p)
 ****
 1  2  14  15  16  17  18  19  20  21  22  24  25  26  27 0
 3-21G
 ****
 35  36  37  38  39  40  41  42  43  44  45 0
 3-21G
 ****


