%nproc=1
%NoSave
%Mem=1900MB
#P OB98/GEN NMR

erre ene a

0 1
  C      340.674    -270.844    -893.450
  O      341.160    -270.477    -892.180
  H      339.586    -270.933    -893.400
  H      341.096    -271.817    -893.740
  H      340.940    -270.089    -894.190
  P      342.741    -270.274    -892.040
  C      344.784    -271.882    -892.080
  O      343.376    -271.745    -891.910
  C      345.155    -273.362    -892.040
  O      344.521    -274.049    -893.160
  C      346.644    -273.636    -892.200
  O      347.365    -273.423    -890.990
  C      346.639    -275.085    -892.650
  O      346.542    -275.981    -891.540
  C      345.372    -275.163    -893.520
  N      345.597    -277.942    -897.790
  C      345.174    -278.237    -896.550
  N      345.135    -277.435    -895.460
  C      345.569    -276.201    -895.770
  C      346.022    -275.743    -897.000
  C      346.031    -276.688    -898.050
  N      346.478    -276.389    -899.320
  N      346.417    -274.423    -896.920
  C      346.196    -274.085    -895.670
  N      345.678    -275.120    -894.940
  O      342.904    -269.667    -890.560
  O      343.367    -269.396    -893.060
  H      347.321    -275.795    -890.970
  H      343.019    -268.698    -890.610
  H      344.835    -279.259    -896.400
  H      346.394    -273.103    -895.240
  H      344.803    -276.081    -893.340
  H      347.557    -275.329    -893.190
  H      347.057    -273.007    -893.010
  H      344.768    -273.815    -891.110
  H      345.301    -271.373    -891.250
  H      345.081    -271.430    -893.030
  H      346.521    -277.124    -900.000
  H      346.913    -275.492    -899.490
  P      348.952    -273.256    -891.100
  C      350.704    -274.727    -892.350
  O      349.551    -274.679    -891.510
  O      349.412    -273.087    -889.570
  O      349.411    -272.111    -891.960
  H      350.174    -272.465    -889.520
  H      350.974    -275.747    -892.527
  H      351.516    -274.222    -891.870
  H      350.487    -274.248    -893.282

 6  7  8  9  10  11  12  13  14  15  25  28  32  33  34  35 0
 6-311+G(2d,p)
 ****
 36  37  40 0
 6-311+G(2d,p)
 ****
 1  2  3  4  5  16  17  18  19  20  21  22  23  24 0
 3-21G
 ****
 26  27  29  30  31  38  39 41  42  43  44  45  46  47  48 0
 3-21G
 ****


