%nproc=1
%NoSave
%Mem=1900MB
#P OB98/GEN NMR

erre ene a

0 1
  C       71.650      52.540     -45.130
  O       70.438      53.227     -45.360
  P       69.042      52.448     -45.491
  C       67.612      51.019     -43.903
  O       68.882      51.611     -44.130
  C       67.733      49.745     -43.064
  O       68.270      48.672     -43.885
  C       68.633      49.876     -41.828
  O       68.061      49.033     -40.823
  C       69.947      49.303     -42.319
  O       70.807      48.913     -41.256
  C       69.448      48.167     -43.221
  N       70.469      47.728     -44.165
  C       70.720      46.356     -44.227
  O       70.148      45.585     -43.452
  N       71.650      45.891     -45.122
  C       72.343      46.737     -45.819
  N       73.247      46.220     -46.693
  C       72.199      48.199     -45.692
  C       71.244      48.622     -44.867
  O       68.873      51.654     -46.741
  O       67.949      53.603     -45.316
  H       71.063      49.716     -40.754
  H       67.867      54.129     -46.150
  H       72.839      48.865     -46.251
  H       71.063      49.676     -44.708
  H       69.140      47.303     -42.618
  H       70.477      50.056     -42.916
  H       68.730      50.901     -41.464
  H       66.723      49.445     -42.760
  H       73.303      45.211     -46.760
  H       67.180      50.760     -44.873
  H       73.776      46.784     -47.340
  H       66.944      51.740     -43.421
  P       68.350      49.278     -39.266
  C       67.588      51.010     -37.544
  O       67.812      50.744     -38.916
  O       69.752      49.003     -38.832
  O       67.309      48.318     -38.513
  H       67.580      48.212     -37.583
  H       67.501      52.091     -37.401
  H       68.413      50.636     -36.931
  H       66.656      50.534     -37.226
  H       72.454      53.244     -45.076
  H       71.829      51.854     -45.932
  H       71.585      52.001     -44.208

 3  4  5  6  7  8  9  10  11  12  13  23  27  28  29  30  32 0
 6-311+G(2d,p)
 ****
 34  35 0
 6-311+G(2d,p)
 ****
 1  2  14  15  16  17  18  19  20  21  22  24  25  26 0
 3-21G
 ****
 31  33  36  37  38  39  40  41  42  43  44  45  46 0
 3-21G
 ****


