%nproc=1
%NoSave
%Mem=1900MB
#P OB98/GEN NMR

erre ene a

0 1
  C      -85.867    -243.075    -325.354
  O      -84.660    -242.343    -325.309
  H      -85.901    -243.643    -326.286
  H      -86.718    -242.389    -325.330
  H      -85.927    -243.772    -324.513
  P      -84.289    -241.619    -323.928
  C      -82.988    -243.233    -322.357
  O      -82.920    -242.288    -323.416
  C      -81.577    -243.616    -321.911
  O      -81.653    -244.174    -320.567
  C      -80.902    -244.665    -322.804
  O      -79.504    -244.367    -322.874
  C      -81.096    -245.954    -322.026
  O      -80.152    -246.968    -322.345
  C      -80.972    -245.445    -320.586
  N      -81.552    -246.367    -319.612
  C      -80.753    -247.418    -319.173
  O      -79.572    -247.578    -319.477
  N      -81.370    -248.318    -318.339
  C      -82.670    -248.282    -317.933
  O      -83.166    -249.129    -317.200
  C      -83.465    -247.153    -318.438
  C      -82.879    -246.263    -319.242
  O      -85.385    -242.195    -322.915
  O      -84.273    -240.127    -323.967
  H      -86.179    -241.629    -322.914
  H      -80.324    -247.248    -323.265
  H      -80.804    -249.085    -318.013
  H      -84.504    -247.099    -318.147
  H      -83.443    -245.431    -319.651
  H      -79.922    -245.258    -320.338
  H      -82.100    -246.355    -322.214
  H      -81.320    -244.729    -323.814
  H      -80.969    -242.706    -321.845
  H      -83.507    -244.131    -322.704
  H      -83.548    -242.800    -321.522
  P      -78.778    -244.568    -324.292
  C      -79.257    -242.126    -325.117
  O      -78.300    -243.103    -324.742
  O      -80.030    -244.884    -325.238
  O      -77.722    -245.620    -324.267
  H      -80.832    -244.392    -324.984
  H      -78.755    -241.219    -325.383
  H      -79.918    -241.940    -324.296
  H      -79.820    -242.481    -325.955

 6  7  8  9  10  11  12  13  14  15  16  27  31  32  33  34  35 0
 6-311+G(2d,p)
 ****
 36  37 0
 6-311+G(2d,p)
 ****
 1  2  3  4  5  17  18  19  20  21  22  23  24  25 0
 3-21G
 ****
 26  28  29  30  38  39  40  41  42  43  44  45 0
 3-21G
 ****


