%nproc=1
%NoSave
%Mem=1900MB
#P OB98/GEN NMR

erre ene a

0 1
  C      151.838    -173.073     -97.206
  O      152.109    -172.675     -98.540
  P      151.175    -171.617     -99.308
  C      150.594    -173.152    -101.306
  O      150.127    -172.501    -100.138
  C      149.959    -172.528    -102.552
  O      150.538    -173.149    -103.729
  C      148.437    -172.698    -102.639
  O      147.911    -171.518    -103.258
  C      148.283    -173.897    -103.555
  O      147.006    -173.953    -104.174
  C      149.452    -173.674    -104.520
  N      149.849    -174.898    -105.210
  C      149.094    -175.295    -106.315
  O      148.115    -174.645    -106.677
  N      149.467    -176.428    -106.994
  C      150.452    -177.149    -106.556
  N      150.822    -178.228    -107.296
  C      151.208    -176.824    -105.331
  C      150.870    -175.687    -104.730
  O      151.910    -170.602    -100.112
  O      150.254    -171.000     -98.161
  H      146.326    -173.963    -103.475
  H      150.682    -170.245     -97.685
  H      152.004    -177.471    -104.991
  H      151.385    -175.356    -103.839
  H      149.197    -172.903    -105.253
  H      148.417    -174.818    -102.977
  H      147.969    -172.831    -101.658
  H      150.228    -171.464    -102.580
  H      150.398    -178.317    -108.215
  H      150.304    -174.204    -101.256
  H      151.749    -178.630    -107.209
  H      151.687    -173.094    -101.350
  P      146.503    -170.949    -102.739
  C      145.156    -172.370    -104.441
  O      145.372    -172.030    -103.090
  O      146.205    -169.794    -103.816
  O      146.486    -170.373    -101.362
  H      145.622    -169.126    -103.411
  H      144.360    -173.120    -104.488
  H      146.060    -172.799    -104.879
  H      144.844    -171.494    -105.012
  H      152.576    -173.779     -96.887
  H      150.869    -173.524     -97.158
  H      151.864    -172.216     -96.566

 3  4  5  6  7  8  9  10  11  12  13  23  27  28  29  30  32 0
 6-311+G(2d,p)
 ****
 34  35 0
 6-311+G(2d,p)
 ****
 1  2  14  15  16  17  18  19  20  21  22  24  25  26 0
 3-21G
 ****
 31  33  36  37  38  39  40  41  42  43  44  45  46 0
 3-21G
 ****


