%nproc=1
%NoSave
%Mem=1900MB
#P OB98/GEN NMR

erre ene a

0 1
  C     -462.769     497.617     -33.944
  O     -461.902     496.590     -33.514
  H     -463.721     497.162     -34.243
  H     -462.351     498.133     -34.809
  H     -462.962     498.327     -33.134
  P     -460.409     496.965     -33.049
  C     -461.081     497.329     -30.596
  O     -460.593     497.946     -31.784
  C     -459.950     497.053     -29.605
  O     -459.300     498.309     -29.251
  C     -460.408     496.380     -28.305
  O     -459.542     495.286     -27.991
  C     -460.244     497.474     -27.260
  O     -460.079     496.962     -25.940
  C     -459.043     498.243     -27.832
  N     -458.899     499.561     -27.231
  C     -457.590     500.028     -27.077
  O     -456.632     499.344     -27.451
  N     -457.385     501.243     -26.463
  C     -458.402     501.895     -25.988
  N     -458.129     503.078     -25.361
  C     -459.800     501.425     -26.105
  C     -459.974     500.263     -26.733
  O     -459.535     497.493     -34.137
  O     -459.839     495.625     -32.380
  H     -459.325     496.329     -25.937
  H     -458.854     495.659     -32.395
  H     -460.606     502.012     -25.689
  H     -460.959     499.836     -26.862
  H     -458.112     497.681     -27.676
  H     -461.135     498.116     -27.261
  H     -461.438     496.019     -28.346
  H     -459.185     496.449     -30.118
  H     -457.162     503.359     -25.298
  H     -461.588     496.392     -30.872
  H     -458.837     503.662     -24.939
  H     -461.804     498.006     -30.133
  P     -460.257     493.944     -27.460
  C     -460.466     493.056     -29.893
  O     -461.130     493.336     -28.666
  O     -461.359     494.499     -26.426
  O     -459.320     492.995     -26.799
  H     -461.100     494.270     -25.513
  H     -461.168     492.659     -30.596
  H     -459.689     492.340     -29.723
  H     -460.042     493.958     -30.283

 6  7  8  9  10  11  12  13  14  15  16  26  30  31  32  33  35 0
 6-311+G(2d,p)
 ****
 37  38 0
 6-311+G(2d,p)
 ****
 1  2  3  4  5  17  18  19  20  21  22  23  24  25 0
 3-21G
 ****
 27  28  29  34  36  39  40  41  42  43  44  45  46 0
 3-21G
 ****


