%nproc=1
%NoSave
%Mem=1900MB
#P OB98/GEN NMR

erre ene a

0 1
  C      -54.432    -112.637    -223.244
  O      -54.549    -114.007    -223.568
  H      -55.311    -112.107    -223.628
  H      -53.538    -112.218    -223.716
  H      -54.383    -112.498    -222.161
  P      -53.463    -114.995    -222.916
  C      -50.878    -114.952    -222.639
  O      -52.020    -114.376    -223.260
  C      -49.659    -114.811    -223.543
  O      -49.724    -115.764    -224.632
  C      -49.510    -113.438    -224.185
  O      -48.892    -112.506    -223.307
  C      -48.600    -113.773    -225.357
  O      -47.242    -113.927    -224.889
  C      -49.161    -115.127    -225.817
  N      -50.108    -113.944    -230.653
  C      -48.918    -113.909    -229.948
  N      -47.828    -113.493    -230.624
  N      -48.810    -114.250    -228.689
  C      -49.985    -114.637    -228.138
  C      -51.226    -114.718    -228.734
  C      -51.330    -114.345    -230.127
  O      -52.354    -114.380    -230.808
  N      -52.175    -115.164    -227.855
  C      -51.521    -115.337    -226.725
  N      -50.189    -115.025    -226.840
  O      -53.535    -116.296    -223.853
  O      -53.688    -115.345    -221.485
  H      -46.682    -114.007    -225.682
  H      -53.395    -117.090    -223.300
  H      -50.139    -113.660    -231.620
  H      -51.959    -115.685    -225.801
  H      -48.380    -115.790    -226.205
  H      -48.590    -112.993    -226.120
  H      -47.854    -113.167    -231.579
  H      -50.470    -113.064    -224.568
  H      -46.938    -113.487    -230.138
  H      -48.767    -115.057    -222.948
  H      -51.070    -116.018    -222.453
  H      -50.700    -114.450    -221.683
  P      -49.305    -110.957    -223.458
  C      -49.253    -109.367    -225.519
  O      -48.651    -110.469    -224.840
  O      -48.404    -110.237    -222.347
  O      -50.756    -110.669    -223.280
  H      -48.808    -109.386    -222.088
  H      -48.709    -109.161    -226.417
  H      -49.235    -108.505    -224.886
  H      -50.266    -109.609    -225.763

 6  7  8  9  10  11  12  13  14  15  26  29  33  34 0
 6-311+G(2d,p)
 ****
 36  38  39  40  41 0
 6-311+G(2d,p)
 ****
 1  2  3  4  5  16  17  18  19  20  21  22  23  24  25 0
 3-21G
 ****
 27  28  30  31  32  35  37  42  43  44  45  46  47 0
 3-21G
 ****
 48  49 0
 3-21G
 ****


