%nproc=1
%NoSave
%Mem=1900MB
#P OB98/GEN NMR

erre ene a

0 1
  C     -930.868     -28.761      50.638
  O     -929.542     -28.371      50.252
  P     -928.441     -29.428      49.762
  C     -927.654     -27.931      47.813
  O     -927.276     -28.637      48.989
  C     -926.488     -27.834      46.810
  O     -925.640     -26.719      47.119
  C     -925.590     -29.072      46.783
  O     -926.200     -30.108      46.032
  C     -924.310     -28.487      46.155
  O     -924.449     -28.409      44.721
  C     -924.278     -27.079      46.776
  N     -921.422     -23.918      49.608
  C     -922.195     -23.704      48.522
  N     -922.922     -24.592      47.801
  C     -922.817     -25.826      48.358
  C     -922.062     -26.204      49.463
  C     -921.330     -25.175      50.098
  N     -920.535     -25.393      51.195
  N     -922.171     -27.546      49.704
  C     -922.998     -27.982      48.779
  N     -923.419     -26.982      47.944
  O     -929.004     -30.581      48.989
  O     -927.734     -29.940      51.104
  H     -924.642     -29.320      44.410
  H     -927.392     -30.841      50.975
  H     -922.237     -22.675      48.155
  H     -923.338     -29.011      48.662
  H     -923.931     -26.337      46.047
  H     -923.432     -29.086      46.370
  H     -925.376     -29.402      47.806
  H     -926.924     -27.649      45.814
  H     -927.962     -26.919      48.103
  H     -920.017     -24.619      51.576
  H     -920.428     -26.333      51.549
  H     -928.500     -28.440      47.355
  P     -926.065     -31.631      46.528
  C     -928.556     -31.884      47.091
  O     -927.478     -32.336      46.279
  O     -925.490     -31.819      47.896
  O     -925.129     -32.315      45.414
  H     -924.620     -33.044      45.809
  H     -928.489     -32.341      48.075
  H     -929.496     -32.174      46.609
  H     -928.530     -30.792      47.180
  H     -931.425     -27.894      50.927
  H     -930.814     -29.441      51.462
  H     -931.354     -29.239      49.813

 3  4  5  6  7  8  9  10  11  12  22  25  29  30  31  32 0
 6-311+G(2d,p)
 ****
 33  36  37 0
 6-311+G(2d,p)
 ****
 1  2  13  14  15  16  17  18  19  20  21  23  24  26 0
 3-21G
 ****
 27  28  34  35  38  39  40  41  42  43  44  45  46  47  48 0
 3-21G
 ****


