%nproc=1
%NoSave
%Mem=1900MB
#P OB98/GEN NMR

erre ene a

0 1
  C     -513.943    -177.296     118.584
  O     -514.250    -178.683     118.793
  P     -514.900    -179.485     117.560
  C     -517.438    -179.001     117.978
  O     -516.271    -178.730     117.209
  C     -518.627    -178.171     117.479
  O     -518.906    -178.502     116.079
  C     -519.930    -178.374     118.274
  O     -520.572    -177.095     118.336
  C     -520.719    -179.328     117.398
  O     -522.117    -179.265     117.673
  C     -520.306    -178.831     115.999
  N     -520.567    -179.814     114.943
  C     -521.754    -179.667     114.228
  O     -522.587    -178.808     114.480
  N     -521.953    -180.581     113.223
  C     -521.150    -181.638     112.927
  O     -521.377    -182.421     112.018
  C     -519.972    -181.811     113.804
  C     -519.746    -180.908     114.748
  O     -515.358    -180.841     118.272
  O     -513.947    -179.663     116.417
  H     -515.694    -180.709     119.179
  H     -522.583    -179.919     117.104
  H     -522.782    -180.467     112.654
  H     -519.334    -182.677     113.632
  H     -518.895    -181.016     115.425
  H     -520.848    -177.908     115.745
  H     -520.382    -180.352     117.554
  H     -519.748    -178.755     119.288
  H     -518.326    -177.111     117.512
  H     -517.259    -178.763     119.031
  H     -517.663    -180.082     117.922
  P     -520.306    -176.170     119.632
  C     -522.290    -177.364     120.869
  O     -520.946    -176.936     120.887
  O     -521.366    -174.987     119.359
  O     -518.913    -175.673     119.775
  H     -522.241    -175.323     119.107
  H     -522.458    -178.056     121.699
  H     -522.520    -177.877     119.937
  H     -522.964    -176.500     120.988
  H     -513.519    -176.886     119.477
  H     -514.839    -176.765     118.338
  H     -513.242    -177.203     117.781

 3  4  5  6  7  8  9  10  11  12  13  24  28  29  30  31  32 0
 6-311+G(2d,p)
 ****
 33  34 0
 6-311+G(2d,p)
 ****
 1  2  14  15  16  17  18  19  20  21  22  23  25  26  27 0
 3-21G
 ****
 35  36  37  38  39  40  41  42  43  44  45 0
 3-21G
 ****


