%nproc=1
%NoSave
%Mem=1900MB
#P OB98/GEN NMR

erre ene a

0 1
  C     -243.042     453.788     243.542
  O     -243.637     454.596     242.522
  P     -244.707     455.694     243.004
  C     -246.852     455.630     244.482
  O     -245.937     454.903     243.671
  C     -248.296     455.303     244.096
  O     -248.556     455.645     242.722
  C     -248.656     453.823     244.209
  O     -248.934     453.452     245.557
  C     -249.917     453.762     243.357
  O     -251.052     454.186     244.141
  C     -249.622     454.780     242.246
  N     -250.752     451.382     238.653
  C     -251.453     451.740     239.791
  N     -252.639     451.116     239.985
  N     -251.034     452.621     240.657
  C     -249.850     453.185     240.323
  C     -249.057     452.915     239.229
  C     -249.515     451.911     238.289
  O     -248.916     451.537     237.283
  N     -247.920     453.693     239.220
  C     -248.040     454.451     240.294
  N     -249.189     454.173     241.003
  O     -245.317     456.228     241.625
  O     -244.124     456.798     243.822
  H     -251.063     453.628     244.942
  H     -245.647     457.144     241.732
  H     -251.118     450.687     238.025
  H     -247.338     455.216     240.599
  H     -250.483     455.424     242.037
  H     -250.135     452.755     242.997
  H     -253.054     450.482     239.318
  H     -247.873     453.197     243.764
  H     -253.183     451.388     240.792
  H     -248.962     455.900     244.737
  H     -246.682     456.704     244.368
  H     -246.663     455.389     245.535
  P     -247.774     452.683     246.358
  C     -247.072     450.193     246.550
  O     -248.026     451.126     246.083
  O     -248.201     452.887     247.888
  O     -246.397     453.192     246.081
  H     -247.412     452.879     248.461
  H     -246.735     450.443     247.562
  H     -246.211     450.177     245.871
  H     -247.527     449.199     246.564
  H     -242.353     453.101     243.096
  H     -243.806     453.243     244.056
  H     -242.522     454.415     244.236

 3  4  5  6  7  8  9  10  11  12  23  26  30  31  33  0
 6-311+G(2d,p)
 ****
 35  36  37  38 0
 6-311+G(2d,p)
 ****
 1  2  13  14  15  16  17  18  19  20  21  22  24  25  27  28  29 0
 3-21G
 ****
 32  34  39  40  41  42  43  44  45  46  47  48  49 0
 3-21G
 ****


