%nproc=1
%NoSave
%Mem=1900MB
#P OB98/GEN NMR

erre ene a

0 1
  C     -196.756     -10.317     256.892
  O     -195.762     -10.883     257.721
  H     -197.088      -9.372     257.333
  H     -197.616     -10.988     256.812
  H     -196.346     -10.116     255.898
  P     -195.210     -12.330     257.307
  C     -196.250     -13.582     259.336
  O     -196.223     -13.410     257.925
  C     -197.393     -14.522     259.716
  O     -198.660     -13.836     259.566
  C     -197.497     -15.759     258.836
  O     -196.556     -16.761     259.183
  C     -198.927     -16.189     259.107
  O     -199.025     -16.988     260.295
  C     -199.654     -14.842     259.280
  N     -200.454     -14.502     258.104
  C     -201.675     -15.169     257.993
  O     -202.074     -15.989     258.818
  N     -202.407     -14.887     256.874
  C     -202.027     -14.063     255.854
  O     -202.708     -13.897     254.849
  C     -200.720     -13.400     256.016
  C     -200.003     -13.650     257.116
  O     -193.893     -12.489     258.203
  O     -194.921     -12.500     255.851
  H     -193.100     -12.388     257.646
  H     -199.958     -17.276     260.349
  H     -203.294     -15.354     256.777
  H     -200.386     -12.744     255.224
  H     -199.033     -13.186     257.254
  H     -200.323     -14.877     260.149
  H     -199.321     -16.782     258.286
  H     -197.404     -15.480     257.775
  H     -197.277     -14.807     260.768
  H     -196.413     -12.613     259.822
  H     -195.286     -13.983     259.666
  P     -195.963     -17.673     258.002
  C     -197.643     -19.550     258.780
  O     -197.073     -18.794     257.717
  O     -194.795     -18.443     258.783
  O     -195.518     -16.882     256.815
  H     -194.989     -18.522     259.736
  H     -198.358     -20.240     258.383
  H     -198.129     -18.889     259.467
  H     -196.871     -20.089     259.288

 6  7  8  9  10  11  12  13  14  15  16  27  31  32  33  34  35 0
 6-311+G(2d,p)
 ****
 36  37 0
 6-311+G(2d,p)
 ****
 1  2  3  4  5  17  18  19  20  21  22  23  24  25 0
 3-21G
 ****
 26  28  29  30  38  39  40  41  42  43  44  45 0
 3-21G
 ****


