%nproc=1
%NoSave
%Mem=1900MB
#P OB98/GEN NMR

erre ene a

0 1
  C        6.515      13.010     -91.399
  O        7.344      12.435     -90.408
  H        7.055      13.081     -92.347
  H        5.640      12.369     -91.539
  H        6.178      14.002     -91.084
  P        8.677      13.244     -90.031
  C       10.849      13.897     -91.295
  O        9.606      13.211     -91.341
  C       11.508      13.881     -92.670
  O       10.577      14.335     -93.677
  C       12.731      14.787     -92.804
  O       13.894      14.188     -92.253
  C       12.829      14.909     -94.317
  O       13.446      13.726     -94.860
  C       11.349      14.968     -94.730
  N       12.223      19.454     -97.035
  C       12.865      18.266     -97.103
  N       12.558      17.110     -96.475
  C       11.454      17.256     -95.723
  C       10.681      18.397     -95.574
  C       11.108      19.543     -96.266
  N       10.484      20.775     -96.136
  N        9.632      18.166     -94.706
  C        9.779      16.913     -94.326
  N       10.861      16.321     -94.923
  O        9.419      12.252     -89.011
  O        8.454      14.591     -89.428
  H       14.370      13.722     -94.547
  H        9.218      12.524     -88.097
  H       13.737      18.240     -97.743
  H        9.135      16.398     -93.628
  H       11.155      14.409     -95.653
  H       13.427      15.765     -94.641
  H       12.544      15.778     -92.375
  H       11.770      12.841     -92.908
  H       11.510      13.407     -90.572
  H       11.109      21.563     -96.275
  H        9.837      20.836     -95.357
  H       10.668      14.927     -90.973
  P       14.866      15.116     -91.376
  C       16.590      16.981     -91.867
  O       15.646      16.067     -92.408
  O       15.989      14.084     -90.884
  O       14.220      15.803     -90.222
  H       16.044      14.100     -89.907
  H       17.032      17.548     -92.659
  H       17.353      16.440     -91.347
  H       16.096      17.644     -91.187

 6  7  8  9  10  11  12  13  14  15  25  28  32  33  34  35 0
 6-311+G(2d,p)
 ****
 36  39  40 0
 6-311+G(2d,p)
 ****
 1  2  3  4  5  16  17  18  19  20  21  22  23  24 0
 3-21G
 ****
 26  27  29  30  31  37  38  41  42  43  44  45  46  47  48 0
 3-21G
 ****


