%nproc=1
%NoSave
%Mem=1900MB
#P OB98/GEN NMR

erre ene a

0 1
  C       -6.978     242.071      96.191
  O       -8.004     242.888      96.717
  H       -7.002     241.106      96.705
  H       -5.996     242.527      96.345
  H       -7.144     241.900      95.123
  P       -8.017     244.442      96.309
  C       -7.132     245.438      98.522
  O       -6.835     245.120      97.163
  C       -6.491     246.769      98.924
  O       -5.055     246.673      98.839
  C       -6.867     247.930      98.017
  O       -8.214     248.337      98.128
  C       -5.755     248.932      98.289
  O       -6.006     249.766      99.415
  C       -4.553     248.001      98.586
  N       -3.571     248.014      97.509
  C       -2.848     249.192      97.363
  O       -3.020     250.188      98.069
  N       -1.939     249.213      96.342
  C       -1.727     248.209      95.442
  O       -0.924     248.304      94.520
  C       -2.539     246.997      95.630
  C       -3.412     246.955      96.641
  O       -9.337     245.140      96.441
  O       -7.433     244.447      94.819
  H       -5.323     250.466      99.411
  H       -7.635     245.298      94.362
  H       -1.398     250.055      96.227
  H       -2.398     246.181      94.934
  H       -4.025     246.070      96.799
  H       -4.045     248.320      99.506
  H       -5.591     249.590      97.433
  H       -6.736     247.604      96.978
  H       -6.757     246.979      99.967
  H       -6.724     244.638      99.148
  H       -8.218     245.478      98.661
  P       -9.096     248.798      96.878
  C       -8.941     251.353      97.327
  O       -8.627     250.275      96.451
  O      -10.559     248.501      96.940
  O       -8.471     247.891      95.697
  H       -9.198     247.666      95.085
  H       -8.569     252.268      96.915
  H       -8.488     251.181      98.281
  H      -10.002     251.420      97.444

 6  7  8  9  10  11  12  13  14  15  16  26  31  32  33  34  35 0
 6-311+G(2d,p)
 ****
 36  37 0
 6-311+G(2d,p)
 ****
 1  2  3  4  5  17  18  19  20  21  22  23  24  25 0
 3-21G
 ****
 27  28  29  30  38  39  40  41  42  43  44  45 0
 3-21G
 ****


