%nproc=1
%NoSave
%Mem=1900MB
#P OB98/GEN NMR

erre ene a

0 1
  C      204.192    -164.083     156.994
  O      205.315    -163.576     157.685
  H      203.750    -164.889     157.584
  H      204.491    -164.483     156.022
  H      203.448    -163.294     156.859
  P      206.177    -162.448     156.939
  C      206.648    -161.534     159.326
  O      207.166    -161.819     158.033
  C      207.607    -162.065     160.387
  O      208.944    -161.574     160.128
  C      207.279    -161.614     161.802
  O      206.223    -162.359     162.385
  C      208.608    -161.854     162.497
  O      208.742    -163.216     162.928
  C      209.629    -161.516     161.395
  N      210.257    -160.217     161.621
  C      210.819    -160.029     162.881
  O      210.803    -160.887     163.762
  N      211.372    -158.800     163.110
  C      211.370    -157.748     162.242
  O      211.835    -156.652     162.533
  C      210.748    -157.998     160.933
  C      210.223    -159.202     160.687
  O      205.109    -161.286     156.677
  O      206.840    -162.894     155.678
  H      204.870    -161.265     155.733
  H      209.580    -163.256     163.431
  H      211.786    -158.645     164.016
  H      210.727    -157.184     160.221
  H      209.748    -159.407     159.733
  H      210.420    -162.275     161.359
  H      208.707    -161.226     163.378
  H      207.059    -160.539     161.817
  H      207.624    -163.161     160.324
  H      205.677    -162.023     159.450
  H      206.512    -160.453     159.425
  P      205.507    -161.750     163.685
  C      203.274    -162.869     162.858
  O      204.191    -162.636     163.914
  O      204.967    -160.363     163.100
  O      206.420    -161.632     164.857
  H      204.808    -160.412     162.141
  H      202.469    -163.479     163.212
  H      203.774    -163.370     162.055
  H      202.887    -161.935     162.509

 6  7  8  9  10  11  12  13  14  15  16  27  31  32  33  34  35 0
 6-311+G(2d,p)
 ****
 36  37 0
 6-311+G(2d,p)
 ****
 1  2  3  4  5  17  18  19  20  21  22  23  24  25 0
 3-21G
 ****
 26  28  29  30  38  39  40  41  42  43  44  45 0
 3-21G
 ****


