%nproc=1
%NoSave
%Mem=1900MB
#P OB98/GEN NMR

erre ene a

0 1
  C     -276.170    -347.119     442.295
  O     -276.284    -345.717     442.105
  P     -276.197    -344.773     443.394
  C     -278.335    -343.299     443.114
  O     -276.918    -343.396     443.016
  C     -278.759    -341.835     443.052
  O     -278.225    -341.102     444.175
  C     -278.260    -341.090     441.813
  O     -279.054    -341.405     440.672
  C     -278.366    -339.647     442.254
  O     -279.706    -339.142     442.070
  C     -278.010    -339.734     443.753
  N     -276.659    -339.286     444.038
  C     -276.512    -337.917     444.256
  O     -277.453    -337.115     444.185
  N     -275.232    -337.488     444.515
  C     -274.107    -338.266     444.523
  O     -272.978    -337.808     444.702
  C     -274.326    -339.699     444.258
  C     -275.562    -340.132     444.025
  O     -274.644    -344.378     443.480
  O     -276.677    -345.406     444.653
  H     -279.670    -338.176     442.215
  H     -274.368    -344.315     444.414
  H     -275.104    -336.503     444.695
  H     -273.457    -340.346     444.251
  H     -275.746    -341.187     443.819
  H     -278.719    -339.121     444.353
  H     -277.708    -338.994     441.677
  H     -277.210    -341.349     441.627
  H     -279.860    -341.786     443.107
  H     -278.661    -343.747     444.061
  H     -278.787    -343.866     442.298
  P     -278.337    -342.208     439.481
  C     -279.710    -340.783     437.776
  O     -279.323    -342.063     438.231
  O     -278.508    -343.723     439.984
  O     -276.915    -341.792     439.263
  H     -279.344    -343.842     440.483
  H     -278.893    -340.043     437.893
  H     -280.582    -340.451     438.347
  H     -279.978    -340.841     436.720
  H     -276.247    -347.614     441.350
  H     -276.955    -347.457     442.939
  H     -275.223    -347.343     442.739

 3  4  5  6  7  8  9  10  11  12  13  23  28  29  30  31  32 0
 6-311+G(2d,p)
 ****
 33  34 0
 6-311+G(2d,p)
 ****
 1  2  14  15  16  17  18  19  20  21  22  24  25  26 0
 3-21G
 ****
 27  35  36  37  38  39  40  41  42  43  44  45 0
 3-21G
 ****


