%nproc=1
%NoSave
%Mem=1900MB
#P OB98/GEN NMR

erre ene a

0 1
  C      222.952      46.820    -225.734
  O      222.279      48.047    -225.930
  H      222.431      46.252    -224.959
  H      223.979      47.003    -225.405
  H      222.956      46.235    -226.658
  P      222.867      49.036    -227.055
  C      222.329      47.291    -228.913
  O      222.119      48.609    -228.416
  C      221.293      46.956    -229.991
  O      219.965      47.017    -229.410
  C      221.328      47.914    -231.189
  O      221.204      47.164    -232.400
  C      220.117      48.810    -230.980
  O      219.627      49.347    -232.209
  C      219.154      47.876    -230.239
  N      218.182      48.618    -229.435
  C      216.864      48.147    -229.442
  O      216.568      47.153    -230.113
  N      215.910      48.835    -228.740
  C      216.227      49.939    -228.131
  N      215.228      50.586    -227.468
  C      217.594      50.499    -228.132
  C      218.512      49.796    -228.795
  O      224.359      48.499    -227.260
  O      222.784      50.490    -226.730
  H      219.037      50.105    -231.992
  H      224.909      49.143    -227.769
  H      217.803      51.430    -227.626
  H      219.541      50.132    -228.854
  H      218.607      47.236    -230.949
  H      220.395      49.650    -230.332
  H      222.243      48.506    -231.230
  H      221.448      45.916    -230.310
  H      214.304      50.177    -227.495
  H      222.242      46.581    -228.087
  H      215.352      51.467    -226.984
  H      223.338      47.227    -229.339
  P      221.998      47.743    -233.670
  C      224.434      47.761    -232.774
  O      223.486      47.136    -233.630
  O      222.205      49.291    -233.308
  O      221.276      47.555    -234.965
  H      221.536      49.837    -233.762
  H      225.373      47.254    -232.851
  H      224.086      47.716    -231.763
  H      224.556      48.784    -233.064

 6  7  8  9  10  11  12  13  14  15  16  26  30  31  32  33  35 0
 6-311+G(2d,p)
 ****
 37  38 0
 6-311+G(2d,p)
 ****
 1  2  3  4  5  17  18  19  20  21  22  23  24  25 0
 3-21G
 ****
 27  28  29  34  36  39  40  41  42  43  44  45  46 0
 3-21G
 ****


