%nproc=1
%NoSave
%Mem=1900MB
#P OB98/GEN NMR

erre ene a

0 1
  C     -244.445     -93.432    -364.750
  O     -243.864     -92.155    -364.917
  H     -245.449     -93.311    -364.337
  H     -243.848     -94.027    -364.054
  H     -244.519     -93.948    -365.712
  P     -242.426     -92.094    -365.623
  C     -242.466     -89.850    -366.946
  O     -242.061     -90.537    -365.770
  C     -243.893     -89.330    -366.779
  O     -243.943     -88.486    -365.595
  C     -244.376     -88.487    -367.964
  O     -245.766     -88.738    -368.181
  C     -244.183     -87.059    -367.478
  O     -245.009     -86.113    -368.139
  C     -244.499     -87.214    -365.989
  N     -243.944     -86.134    -365.178
  C     -244.501     -84.865    -365.330
  O     -245.475     -84.610    -366.039
  N     -243.889     -83.864    -364.622
  C     -242.789     -83.994    -363.821
  O     -242.274     -83.051    -363.232
  C     -242.243     -85.354    -363.707
  C     -242.833     -86.343    -364.382
  O     -242.734     -92.539    -367.131
  O     -241.360     -92.920    -364.986
  H     -242.644     -93.507    -367.226
  H     -245.944     -86.349    -367.958
  H     -244.279     -82.939    -364.721
  H     -241.367     -85.494    -363.089
  H     -242.447     -87.355    -364.333
  H     -245.588     -87.270    -365.832
  H     -243.138     -86.754    -367.622
  H     -243.818     -88.681    -368.880
  H     -244.566     -90.180    -366.597
  H     -242.431     -90.543    -367.796
  H     -241.780     -89.021    -367.136
  P     -246.163     -89.651    -369.444
  C     -248.239     -90.750    -368.289
  O     -247.745     -89.909    -369.320
  O     -245.501     -91.048    -369.045
  O     -245.707     -89.075    -370.744
  H     -245.548     -91.244    -368.092
  H     -249.305     -90.808    -368.356
  H     -247.963     -90.347    -367.337
  H     -247.821     -91.729    -368.396

 6  7  8  9  10  11  12  13  14  15  16  27  31  32  33  34  35 0
 6-311+G(2d,p)
 ****
 36  37 0
 6-311+G(2d,p)
 ****
 1  2  3  4  5  17  18  19  20  21  22  23  24  25 0
 3-21G
 ****
 26  28  29  30  38  39  40  41  42  43  44  45 0
 3-21G
 ****


