%nproc=1
%NoSave
%Mem=1900MB
#P OB98/GEN NMR

erre ene a

0 1
  C      120.669      80.763      25.435
  O      121.097      79.510      25.974
  P      122.384      78.844      25.283
  C      121.120      76.581      25.412
  O      122.350      77.270      25.588
  C      120.866      75.621      26.576
  O      120.509      76.312      27.788
  C      119.737      74.636      26.310
  O      120.201      73.573      25.495
  C      119.371      74.194      27.720
  O      120.239      73.136      28.179
  C      119.600      75.470      28.545
  N      114.920      75.218      30.473
  C      115.809      74.204      30.171
  N      115.404      72.947      30.447
  N      116.991      74.407      29.650
  C      117.265      75.715      29.430
  C      116.478      76.807      29.713
  C      115.171      76.570      30.286
  O      114.357      77.434      30.592
  N      117.120      77.981      29.406
  C      118.239      77.588      28.823
  N      118.404      76.224      28.871
  O      123.600      79.385      26.171
  O      122.545      79.213      23.846
  H      120.114      72.354      27.613
  H      124.129      80.023      25.654
  H      114.020      75.004      30.866
  H      118.969      78.246      28.378
  H      120.090      75.248      29.500
  H      118.353      73.800      27.772
  H      114.507      72.719      30.850
  H      118.887      75.150      25.844
  H      116.044      72.190      30.240
  H      121.800      75.074      26.761
  H      121.134      76.026      24.472
  H      120.314      77.318      25.330
  P      119.279      73.110      24.269
  C      119.723      70.591      23.832
  O      120.046      71.930      23.509
  O      119.373      74.347      23.256
  O      117.860      72.823      24.636
  H      118.486      74.552      22.907
  H      119.889      69.967      22.951
  H      118.681      70.491      24.148
  H      120.378      70.248      24.637
  H      119.810      81.107      25.971
  H      120.419      80.640      24.402
  H      121.458      81.480      25.528

 3  4  5  6  7  8  9  10  11  12  23  26  30  31 0
 6-311+G(2d,p)
 ****
 33  35  36  37  38 0
 6-311+G(2d,p)
 ****
 1  2  13  14  15  16  17  18  19  20  21  22  24  25 0
 3-21G
 ****
 27  28  29  32  34  39  40  41  42  43  44  45  46  47  48  49 0
 3-21G
 ****


