%nproc=1
%NoSave
%Mem=1900MB
#P OB98/GEN NMR

erre ene a

0 1
  C      -26.292    -463.000    -211.237
  O      -26.182    -463.301    -212.619
  P      -25.886    -464.827    -213.025
  C      -26.707    -464.318    -215.436
  O      -25.680    -464.857    -214.618
  C      -26.169    -463.970    -216.826
  O      -25.298    -462.809    -216.715
  C      -25.360    -465.090    -217.499
  O      -25.620    -465.006    -218.902
  C      -23.930    -464.682    -217.178
  O      -22.954    -465.315    -217.990
  C      -24.040    -463.168    -217.330
  N      -19.213    -461.576    -217.919
  C      -20.065    -462.207    -218.763
  N      -21.338    -462.592    -218.537
  C      -21.722    -462.253    -217.295
  C      -20.965    -461.629    -216.320
  C      -19.651    -461.280    -216.670
  N      -18.781    -460.646    -215.807
  N      -21.690    -461.469    -215.158
  C      -22.869    -461.996    -215.424
  N      -22.944    -462.461    -216.708
  O      -27.305    -465.537    -212.826
  O      -24.808    -465.495    -212.230
  H      -23.044    -465.017    -218.915
  H      -27.203    -466.432    -212.450
  H      -19.667    -462.433    -219.750
  H      -23.692    -462.072    -214.725
  H      -24.082    -462.861    -218.384
  H      -23.706    -464.951    -216.141
  H      -25.625    -466.089    -217.144
  H      -27.016    -463.681    -217.462
  H      -27.092    -463.401    -214.978
  H      -17.812    -460.624    -216.083
  H      -19.044    -460.621    -214.827
  H      -27.533    -465.035    -215.504
  P      -25.940    -466.353    -219.716
  C      -27.544    -465.083    -221.273
  O      -26.346    -465.835    -221.181
  O      -27.371    -466.742    -219.104
  O      -24.912    -467.426    -219.629
  H      -27.990    -465.991    -219.126
  H      -27.643    -464.711    -222.299
  H      -27.510    -464.231    -220.589
  H      -28.401    -465.719    -221.041
  H      -26.488    -461.955    -211.114
  H      -25.377    -463.251    -210.743
  H      -27.094    -463.566    -210.811

 3  4  5  6  7  8  9  10  11  12  22  25  29  30  31  32 0
 6-311+G(2d,p)
 ****
 33  36  37 0
 6-311+G(2d,p)
 ****
 1  2  13  14  15  16  17  18  19  20  21  23  24  26 0
 3-21G
 ****
 27  28  34  35  38  39  40  41  42  43  44  45  46  47  48 0
 3-21G
 ****


