%nproc=1
%NoSave
%Mem=1900MB
#P OB98/GEN NMR

erre ene a

0 1
  C     -122.998    -260.711    -124.993
  O     -123.292    -262.086    -124.853
  H     -122.003    -260.609    -125.434
  H     -122.998    -260.230    -124.012
  H     -123.727    -260.229    -125.648
  P     -124.752    -262.462    -124.304
  C     -126.474    -264.157    -125.246
  O     -125.114    -263.900    -124.927
  C     -126.611    -265.485    -125.989
  O     -125.928    -265.378    -127.275
  C     -126.010    -266.689    -125.249
  O     -126.825    -267.835    -125.530
  C     -124.671    -266.880    -125.944
  O     -124.152    -268.197    -125.781
  C     -125.059    -266.523    -127.378
  N     -123.086    -267.216    -131.953
  C     -124.314    -267.586    -131.441
  N     -125.149    -268.245    -132.274
  N     -124.691    -267.335    -130.216
  C     -123.772    -266.640    -129.504
  C     -122.523    -266.219    -129.892
  C     -122.104    -266.531    -131.243
  O     -121.023    -266.246    -131.749
  N     -121.879    -265.569    -128.867
  C     -122.739    -265.597    -127.866
  N     -123.900    -266.236    -128.203
  O     -125.698    -261.453    -125.108
  O     -124.931    -262.342    -122.827
  H     -123.988    -268.340    -124.827
  H     -125.854    -260.645    -124.583
  H     -122.839    -267.447    -132.900
  H     -122.570    -265.177    -126.883
  H     -125.611    -267.330    -127.875
  H     -123.935    -266.169    -125.548
  H     -124.944    -268.433    -133.242
  H     -125.918    -266.554    -124.167
  H     -126.070    -268.488    -131.929
  H     -127.673    -265.651    -126.210
  H     -126.848    -263.348    -125.884
  H     -127.062    -264.182    -124.322
  P     -127.963    -268.225    -124.472
  C     -130.008    -269.801    -124.785
  O     -128.606    -269.620    -124.926
  O     -129.128    -267.175    -124.797
  O     -127.529    -268.145    -123.044
  H     -129.658    -267.011    -123.994
  H     -130.278    -270.777    -125.130
  H     -130.523    -269.063    -125.364
  H     -130.279    -269.699    -123.755

 6  7  8  9  10  11  12  13  14  15  26  29  33  34 0
 6-311+G(2d,p)
 ****
 36  38  39  40  41 0
 6-311+G(2d,p)
 ****
 1  2  3  4  5  16  17  18  19  20  21  22  23  24  25 0
 3-21G
 ****
 27  28  30  31  32  35  37  42  43  44  45  46  47 0
 3-21G
 ****
 48  49 0
 3-21G
 ****


