%nproc=1
%NoSave
%Mem=1900MB
#P OB98/GEN NMR

erre ene a

0 1
  C     -147.546     104.214     221.109
  O     -148.903     104.594     220.998
  P     -149.825     104.718     222.304
  C     -149.969     107.292     222.351
  O     -149.434     106.127     222.971
  C     -149.118     108.520     222.674
  O     -147.811     108.403     222.073
  C     -149.693     109.832     222.158
  O     -150.754     110.270     222.987
  C     -148.459     110.723     222.179
  O     -148.225     111.256     223.493
  C     -147.340     109.736     221.784
  N     -146.941     109.878     220.389
  C     -146.130     110.980     220.095
  O     -145.821     111.780     220.979
  N     -145.731     111.177     218.795
  C     -146.128     110.357     217.871
  N     -145.709     110.611     216.600
  C     -147.008     109.202     218.134
  C     -147.374     109.025     219.402
  O     -149.792     103.543     223.223
  O     -151.279     105.006     221.694
  H     -148.880     111.971     223.617
  H     -151.671     104.190     221.299
  H     -147.322     108.555     217.329
  H     -148.022     108.204     219.684
  H     -146.452     109.892     222.410
  H     -148.558     111.575     221.500
  H     -150.037     109.703     221.124
  H     -148.987     108.565     223.764
  H     -145.131     111.429     216.458
  H     -150.984     107.447     222.728
  H     -145.986     110.061     215.804
  H     -150.025     107.133     221.268
  P     -152.270     110.041     222.532
  C     -153.624     109.675     224.681
  O     -152.958     109.060     223.595
  O     -152.457     109.661     221.100
  O     -152.969     111.450     222.839
  H     -153.537     111.694     222.084
  H     -154.311     108.953     225.127
  H     -154.191     110.549     224.350
  H     -152.891     109.978     225.434
  H     -147.102     104.188     220.136
  H     -147.483     103.244     221.556
  H     -147.026     104.923     221.719

 3  4  5  6  7  8  9  10  11  12  13  23  27  28  29  30  32 0
 6-311+G(2d,p)
 ****
 34  35 0
 6-311+G(2d,p)
 ****
 1  2  14  15  16  17  18  19  20  21  22  24  25  26 0
 3-21G
 ****
 31  33  36  37  38  39  40  41  42  43  44  45  46 0
 3-21G
 ****


