%nproc=1
%NoSave
%Mem=1900MB
#P OB98/GEN NMR

erre ene a

0 1
  C      108.694     -91.191      98.215
  O      109.183     -90.635      96.986
  P      108.648     -91.080      95.539
  C      107.154     -88.975      95.336
  O      107.212     -90.399      95.308
  C      106.637     -88.428      94.002
  O      105.250     -88.802      93.809
  C      106.634     -86.911      93.879
  O      107.934     -86.380      93.707
  C      105.709     -86.711      92.680
  O      106.421     -86.843      91.443
  C      104.709     -87.872      92.839
  N      103.378     -87.432      93.226
  C      102.322     -87.816      92.392
  O      102.546     -88.427      91.345
  N      101.043     -87.483      92.760
  C      100.843     -86.742      93.803
  N       99.552     -86.461      94.131
  C      101.940     -86.201      94.631
  C      103.167     -86.583      94.291
  O      108.653     -92.559      95.320
  O      109.602     -90.339      94.488
  H      109.629     -90.849      93.657
  H      107.135     -86.174      91.457
  H      101.729     -85.553      95.470
  H      104.030     -86.245      94.853
  H      104.641     -88.443      91.904
  H      105.244     -85.719      92.681
  H      106.170     -86.477      94.774
  H      107.233     -88.875      93.196
  H       98.824     -86.856      93.548
  H      108.165     -88.591      95.508
  H       99.286     -85.912      94.935
  H      106.513     -88.658      96.164
  P      108.421     -85.286      94.774
  C      109.595     -86.970      96.365
  O      108.563     -86.019      96.193
  O      107.139     -84.342      94.957
  O      109.620     -84.499      94.353
  H      107.425     -83.412      95.040
  H      109.868     -87.001      97.422
  H      110.480     -86.718      95.776
  H      109.228     -87.955      96.065
  H      109.202     -90.736      99.039
  H      108.872     -92.246      98.225
  H      107.643     -91.005      98.297

 3  4  5  6  7  8  9  10  11  12  13  24  27  28  29  30  32 0
 6-311+G(2d,p)
 ****
 34  35 0
 6-311+G(2d,p)
 ****
 1  2  14  15  16  17  18  19  20  21  22  23  25  26 0
 3-21G
 ****
 31  33  36  37  38  39  40  41  42  43  44  45  46 0
 3-21G
 ****


