%nproc=1
%NoSave
%Mem=1900MB
#P OB98/GEN NMR

erre ene a

0 1
  C     1677.023     874.483     463.742
  O     1676.703     875.870     463.562
  P     1676.684     876.773     464.905
  C     1678.852     877.862     463.904
  O     1678.180     877.350     465.046
  C     1679.845     878.940     464.326
  O     1679.211     879.901     465.208
  C     1681.052     878.404     465.090
  O     1681.962     877.753     464.212
  C     1681.569     879.702     465.734
  O     1682.351     880.446     464.774
  C     1680.263     880.456     466.035
  N     1679.907     880.388     467.451
  C     1679.516     881.575     468.061
  O     1679.476     882.654     467.441
  N     1679.175     881.507     469.355
  C     1679.199     880.386     470.158
  O     1678.862     880.383     471.315
  C     1679.653     879.163     469.485
  C     1679.987     879.216     468.183
  O     1676.575     875.669     466.046
  O     1675.588     877.790     464.910
  H     1677.051     874.847     465.819
  H     1681.712     880.809     464.125
  H     1678.838     882.374     469.801
  H     1679.747     878.261     470.072
  H     1680.359     878.328     467.687
  H     1680.344     881.497     465.760
  H     1682.204     879.515     466.585
  H     1680.709     877.727     465.870
  H     1680.169     879.484     463.422
  H     1678.128     878.278     463.194
  H     1679.351     877.026     463.389
  P     1682.157     876.179     464.411
  C     1681.260     875.830     461.977
  O     1681.187     875.482     463.340
  O     1681.412     875.933     465.809
  O     1683.584     875.729     464.356
  H     1680.572     876.434     465.877
  H     1680.783     875.041     461.382
  H     1682.294     875.942     461.646
  H     1680.713     876.771     461.784
  H     1677.006     873.987     462.794
  H     1676.303     874.032     464.393
  H     1677.998     874.395     464.173

 3  4  5  6  7  8  9  10  11  12  13  24  28  29  30  31  32 0
 6-311+G(2d,p)
 ****
 33  34 0
 6-311+G(2d,p)
 ****
 1  2  14  15  16  17  18  19  20  21  22  23  25  26  27 0
 3-21G
 ****
 35  36  37  38  39  40  41  42  43  44  45 0
 3-21G
 ****


