%nproc=1
%NoSave
%Mem=1900MB
#P OB98/GEN NMR

erre ene a

0 1
  C     -432.181     110.838    -375.832
  O     -431.853     110.047    -376.975
  P     -431.990     108.453    -376.839
  C     -430.388     106.478    -376.327
  O     -430.515     107.866    -376.565
  C     -428.921     106.060    -376.229
  O     -428.372     105.912    -377.579
  C     -428.018     107.062    -375.493
  O     -426.998     106.318    -374.821
  C     -427.380     107.858    -376.622
  O     -426.188     108.513    -376.218
  C     -427.205     106.763    -377.662
  N     -423.994     108.936    -381.003
  C     -423.807     108.502    -379.745
  N     -424.722     107.927    -378.923
  C     -425.910     107.821    -379.518
  C     -426.259     108.257    -380.784
  C     -425.241     108.838    -381.561
  N     -425.416     109.275    -382.849
  N     -427.597     108.010    -381.043
  C     -428.049     107.431    -379.941
  N     -427.062     107.286    -379.002
  O     -432.297     107.999    -378.345
  O     -433.054     107.967    -375.901
  H     -425.515     107.833    -375.996
  H     -433.218     107.672    -378.420
  H     -422.810     108.621    -379.348
  H     -429.078     107.115    -379.779
  H     -426.321     106.135    -377.454
  H     -428.091     108.625    -376.977
  H     -428.561     107.703    -374.772
  H     -428.861     105.072    -375.751
  H     -430.847     105.935    -377.164
  H     -424.597     109.538    -383.386
  H     -426.271     109.031    -383.330
  H     -430.925     106.206    -375.414
  P     -426.461     106.902    -373.421
  C     -424.197     108.039    -372.861
  O     -425.268     107.913    -373.768
  O     -425.715     105.640    -372.757
  O     -427.541     107.441    -372.524
  H     -425.724     105.725    -371.782
  H     -423.277     108.245    -373.423
  H     -424.060     107.113    -372.268
  H     -424.381     108.873    -372.188
  H     -432.045     111.874    -376.064
  H     -431.543     110.568    -375.017
  H     -433.201     110.665    -375.559

 3  4  5  6  7  8  9  10  11  12  22  25  29  30  31  32 0
 6-311+G(2d,p)
 ****
 33  36  37 0
 6-311+G(2d,p)
 ****
 1  2  13  14  15  16  17  18  19  20  21  23  24  26 0
 3-21G
 ****
 27  28  34  35  38  39  40  41  42  43  44  45  46  47  48 0
 3-21G
 ****


