%nproc=1
%NoSave
%Mem=1900MB
#P OB98/GEN NMR

erre ene a

0 1
  C     -208.257    -519.183     433.126
  O     -207.951    -518.462     431.952
  P     -206.758    -517.409     431.841
  C     -206.480    -514.832     432.160
  O     -207.290    -515.981     432.349
  C     -207.193    -513.568     432.660
  O     -208.362    -513.332     431.830
  C     -207.714    -513.749     434.102
  O     -207.529    -512.609     434.933
  C     -209.144    -514.230     433.892
  O     -209.982    -514.048     435.030
  C     -209.550    -513.466     432.633
  N     -214.456    -513.458     431.305
  C     -213.731    -512.481     431.951
  N     -214.438    -511.459     432.481
  N     -212.434    -512.525     432.112
  C     -211.869    -513.665     431.641
  C     -212.484    -514.704     430.977
  C     -213.917    -514.614     430.772
  O     -214.615    -515.511     430.302
  N     -211.609    -515.723     430.698
  C     -210.473    -515.317     431.230
  N     -210.586    -514.091     431.846
  O     -205.938    -517.450     430.594
  O     -205.806    -517.872     433.063
  H     -209.987    -513.096     435.242
  H     -204.876    -517.702     432.789
  H     -215.466    -513.403     431.282
  H     -209.546    -515.888     431.225
  H     -209.913    -512.466     432.876
  H     -209.102    -515.309     433.698
  H     -215.458    -511.469     432.503
  H     -207.149    -514.531     434.617
  H     -213.979    -510.872     433.169
  H     -206.525    -512.700     432.560
  H     -206.294    -514.752     431.083
  H     -205.513    -514.948     432.658
  P     -207.485    -512.527     436.534
  C     -209.189    -512.297     438.429
  O     -208.972    -512.709     437.096
  O     -207.170    -510.991     436.865
  O     -206.464    -513.413     437.179
  H     -206.552    -510.946     437.620
  H     -210.140    -512.722     438.784
  H     -209.254    -511.210     438.478
  H     -208.386    -512.656     439.083
  H     -209.096    -519.821     432.944
  H     -208.494    -518.498     433.913
  H     -207.413    -519.776     433.411

 3  4  5  6  7  8  9  10  11  12  23  26  30  31 0
 6-311+G(2d,p)
 ****
 33  35  36  37  38 0
 6-311+G(2d,p)
 ****
 1  2  13  14  15  16  17  18  19  20  21  22  24  25 0
 3-21G
 ****
 27  28  29  32  34  39  40  41  42  43  44  45  46  47  48  49 0
 3-21G
 ****


