%nproc=1
%NoSave
%Mem=1900MB
#P OB98/GEN NMR

erre ene a

0 1
  C        3.356      62.030     120.610
  O        3.009      63.128     119.789
  H        4.267      62.278     121.161
  H        3.542      61.143     119.999
  H        2.553      61.828     121.325
  P        1.753      62.920     118.809
  C        1.514      61.640     116.548
  O        2.311      61.907     117.692
  C        2.403      61.472     115.321
  O        3.208      62.653     115.109
  C        3.399      60.318     115.413
  O        2.813      59.049     115.185
  C        4.354      60.709     114.299
  O        3.747      60.427     113.023
  C        4.476      62.228     114.537
  N        5.586      62.581     115.427
  C        6.845      62.725     114.833
  O        6.994      62.556     113.625
  N        7.923      63.022     115.634
  C        7.757      63.184     116.910
  N        8.861      63.475     117.650
  C        6.448      63.056     117.575
  C        5.419      62.757     116.784
  O        1.669      64.306     118.014
  O        0.477      62.500     119.457
  H        3.682      59.458     112.954
  H        1.016      64.232     117.275
  H        6.361      63.187     118.644
  H        4.424      62.647     117.201
  H        4.605      62.766     113.589
  H        5.298      60.165     114.327
  H        3.943      60.332     116.365
  H        1.749      61.361     114.447
  H        9.754      63.497     117.175
  H        0.828      62.482     116.403
  H        8.861      63.471     118.662
  H        0.932      60.727     116.701
  P        3.289      57.838     116.128
  C        5.409      56.332     116.284
  O        4.707      57.344     115.569
  O        2.298      56.651     115.725
  O        3.246      58.130     117.596
  H        2.094      56.087     116.496
  H        6.330      56.116     115.785
  H        4.811      55.446     116.327
  H        5.613      56.673     117.277

 6  7  8  9  10  11  12  13  14  15  16  26  30  31  32  33  35 0
 6-311+G(2d,p)
 ****
 37  38 0
 6-311+G(2d,p)
 ****
 1  2  3  4  5  17  18  19  20  21  22  23  24  25 0
 3-21G
 ****
 27  28  29  34  36  39  40  41  42  43  44  45  46 0
 3-21G
 ****


