%nproc=1
%NoSave
%Mem=1900MB
#P OB98/GEN NMR

erre ene a

0 1
  C      239.965     538.020    -226.644
  O      240.540     537.797    -225.365
  P      241.994     537.117    -225.313
  C      242.671     537.599    -222.833
  O      242.834     537.955    -224.214
  C      243.565     538.476    -221.962
  O      243.188     539.860    -222.090
  C      243.467     538.155    -220.469
  O      244.206     536.992    -220.156
  C      244.034     539.435    -219.857
  O      245.464     539.367    -219.754
  C      243.605     540.520    -220.867
  N      242.539     541.390    -220.355
  C      242.961     542.461    -219.562
  O      244.169     542.634    -219.350
  N      242.010     543.302    -219.037
  C      240.756     543.076    -219.277
  N      239.862     543.944    -218.731
  C      240.274     541.940    -220.075
  C      241.201     541.126    -220.569
  O      242.655     537.566    -226.687
  O      241.984     535.639    -225.123
  H      245.661     538.485    -219.379
  H      243.337     536.924    -226.975
  H      239.200     541.794    -220.226
  H      240.940     540.267    -221.165
  H      244.451     541.170    -221.137
  H      243.660     539.603    -218.841
  H      242.411     538.047    -220.162
  H      244.607     538.370    -222.317
  H      240.223     544.719    -218.175
  H      242.958     536.555    -222.700
  H      238.864     543.872    -218.862
  H      241.622     537.711    -222.558
  P      243.475     535.858    -219.299
  C      243.938     534.108    -221.123
  O      242.944     534.802    -220.395
  O      242.115     536.580    -218.862
  O      244.226     535.279    -218.138
  H      241.620     536.011    -218.237
  H      243.452     533.312    -221.716
  H      244.664     533.646    -220.460
  H      244.440     534.784    -221.822
  H      239.004     538.475    -226.528
  H      239.858     537.086    -227.155
  H      240.600     538.667    -227.213

 3  4  5  6  7  8  9  10  11  12  13  21  23  27  28  29  30  32 0
 6-311+G(2d,p)
 ****
 34  35 0
 6-311+G(2d,p)
 ****
 1  2  14  15  16  17  18  19  20  22  24  25  26 0
 3-21G
 ****
 31  33  36  37  38  39  40  41  42  43  44  45  46 0
 3-21G
 ****


