%nproc=1
%NoSave
%Mem=1900MB
#P OB98/GEN NMR

erre ene a

0 1
  C       80.387     -31.873    -101.380
  O       80.999     -32.844    -102.231
  P       82.023     -32.354    -103.362
  C       84.227     -33.233    -102.357
  O       83.271     -33.364    -103.401
  C       84.928     -34.572    -102.088
  O       83.983     -35.547    -101.557
  C       85.538     -35.182    -103.357
  O       86.737     -35.910    -103.041
  C       84.487     -36.185    -103.789
  O       85.033     -37.184    -104.649
  C       84.007     -36.695    -102.432
  N       81.450     -41.129    -102.254
  C       82.759     -40.839    -102.080
  N       83.364     -39.633    -102.118
  C       82.467     -38.660    -102.354
  C       81.101     -38.801    -102.542
  C       80.591     -40.111    -102.492
  N       79.263     -40.409    -102.699
  N       80.504     -37.577    -102.763
  C       81.502     -36.716    -102.757
  N       82.700     -37.316    -102.482
  O       82.385     -30.906    -103.324
  O       81.249     -32.715    -104.721
  H       85.825     -37.547    -104.211
  H       81.362     -31.982    -105.357
  H       83.408     -41.690    -101.889
  H       81.413     -35.658    -102.960
  H       84.705     -37.423    -102.000
  H       83.682     -35.672    -104.328
  H       85.765     -34.457    -104.147
  H       85.698     -34.423    -101.323
  H       83.735     -32.881    -101.448
  H       79.010     -41.385    -102.760
  H       78.643     -39.680    -103.022
  H       84.949     -32.453    -102.628
  P       88.113     -35.076    -103.128
  C       88.378     -34.590    -100.573
  O       88.835     -35.281    -101.714
  O       87.927     -33.664    -103.577
  O       88.972     -35.965    -104.145
  H       89.009     -36.911    -103.928
  H       88.915     -34.963     -99.696
  H       87.307     -34.755    -100.419
  H       88.576     -33.519    -100.676
  H       79.737     -32.365    -100.687
  H       79.821     -31.185    -101.973
  H       81.145     -31.342    -100.843

 3  4  5  6  7  8  9  10  11  12  22  25  29  30  31  32 0
 6-311+G(2d,p)
 ****
 33  36  37 0
 6-311+G(2d,p)
 ****
 1  2  13  14  15  16  17  18  19  20  21  23  24  26 0
 3-21G
 ****
 27  28  34  35  38  39  40  41  42  43  44  45  46  47  48 0
 3-21G
 ****


