%nproc=1
%NoSave
%Mem=1900MB
#P OB98/GEN NMR

erre ene a

0 1
  C       59.921      -0.933     104.080
  O       61.138      -1.117     104.766
  P       61.260      -1.858     106.171
  C       62.148       0.427     107.078
  O       62.217      -0.992     107.123
  C       62.187       1.025     108.493
  O       62.426       2.452     108.384
  C       60.841       0.851     109.215
  O       60.959       0.485     110.583
  C       60.116       2.153     108.902
  O       59.055       2.444     109.799
  C       61.268       3.153     108.885
  N       60.215       8.122     108.850
  C       60.605       7.325     109.906
  N       60.529       7.884     111.133
  N       60.998       6.084     109.768
  C       60.915       5.629     108.497
  C       60.545       6.325     107.371
  C       60.146       7.703     107.532
  O       59.684       8.414     106.640
  N       60.513       5.521     106.262
  C       60.829       4.328     106.721
  N       61.050       4.336     108.080
  O       61.460      -3.338     106.132
  O       59.806      -1.578     106.815
  H       58.503       3.135     109.387
  H       59.573      -2.363     107.350
  H       59.845       9.049     109.031
  H       60.884       3.423     106.127
  H       61.502       3.511     109.890
  H       59.671       2.051     107.906
  H       60.091       8.782     111.284
  H       60.277       0.018     108.780
  H       60.565       7.253     111.931
  H       63.022       0.586     109.047
  H       61.199       0.675     106.591
  H       62.956       0.833     106.465
  P       60.437      -0.833     111.318
  C       57.971      -0.233     110.953
  O       58.974      -0.548     111.900
  O       61.328      -0.952     112.640
  O       60.548      -2.083     110.507
  H       61.552      -1.889     112.801
  H       57.116       0.200     111.479
  H       57.648      -1.145     110.443
  H       58.342       0.490     110.219
  H       60.103      -0.410     103.164
  H       59.251      -0.363     104.689
  H       59.485      -1.886     103.865

 3  4  5  6  7  8  9  10  11  12  23  26  30  31 0
 6-311+G(2d,p)
 ****
 33  35  36  37  38 0
 6-311+G(2d,p)
 ****
 1  2  13  14  15  16  17  18  19  20  21  22  24  25 0
 3-21G
 ****
 27  28  29  32  34  39  40  41  42  43  44  45  46  47  48  49 0
 3-21G
 ****


