%nproc=1
%NoSave
%Mem=1900MB
#P OB98/GEN NMR

erre ene a

0 1
  C      144.297    -217.626      88.461
  O      143.821    -216.394      89.013
  P      143.479    -216.242      90.574
  C      143.690    -213.754      91.174
  O      142.793    -214.816      90.864
  C      144.268    -213.069      89.928
  O      143.211    -212.682      89.009
  C      145.091    -211.803      90.208
  O      146.088    -211.746      89.186
  C      144.061    -210.704      90.012
  O      144.633    -209.423      89.794
  C      143.288    -211.256      88.818
  N      140.465    -207.673      86.493
  C      141.719    -208.120      86.259
  N      142.387    -209.101      86.896
  C      141.618    -209.672      87.839
  C      140.321    -209.330      88.183
  C      139.740    -208.267      87.469
  N      138.483    -207.776      87.734
  N      139.866    -210.119      89.223
  C      140.879    -210.914      89.504
  N      141.960    -210.687      88.693
  O      144.622    -216.561      91.484
  O      142.284    -217.281      90.818
  H      145.177    -209.465      88.987
  H      142.464    -217.790      91.631
  H      142.256    -207.617      85.460
  H      140.892    -211.655      90.293
  H      143.823    -211.074      87.878
  H      143.429    -210.637      90.907
  H      145.545    -211.789      91.202
  H      144.883    -213.810      89.402
  H      144.510    -214.158      91.778
  H      138.191    -206.952      87.233
  H      137.979    -208.118      88.539
  H      143.159    -213.015      91.785
  P      147.578    -212.277      89.434
  C      147.923    -213.855      87.450
  O      148.204    -212.578      87.992
  O      147.690    -213.401      90.411
  O      148.391    -210.987      89.928
  H      149.206    -211.271      90.381
  H      148.547    -214.610      87.941
  H      148.149    -213.848      86.381
  H      146.868    -214.115      87.586
  H      144.460    -217.507      87.410
  H      143.570    -218.394      88.624
  H      145.216    -217.898      88.936

 3  4  5  6  7  8  9  10  11  12  22  25  29  30  31  32 0
 6-311+G(2d,p)
 ****
 33  36  37 0
 6-311+G(2d,p)
 ****
 1  2  13  14  15  16  17  18  19  20  21  23  24  26 0
 3-21G
 ****
 27  28  34  35  38  39  40  41  42  43  44  45  46  47  48 0
 3-21G
 ****


