%nproc=1
%NoSave
%Mem=1900MB
#P OB98/GEN NMR

erre ene a

0 1
  C       83.728    -138.877      47.601
  O       83.811    -139.396      48.909
  H       82.868    -139.334      47.101
  H       84.627    -139.117      47.028
  H       83.580    -137.794      47.627
  P       85.096    -139.039      49.807
  C       84.396    -136.844      50.944
  O       84.499    -138.257      51.088
  C       83.281    -136.272      51.819
  O       82.012    -136.866      51.438
  C       83.477    -136.522      53.319
  O       83.232    -135.310      54.039
  C       82.415    -137.562      53.653
  O       82.052    -137.535      55.031
  C       81.311    -137.185      52.658
  N       80.335    -138.251      52.459
  C       79.557    -138.601      53.568
  O       79.739    -138.042      54.652
  N       78.624    -139.594      53.436
  C       78.511    -140.226      52.309
  N       77.571    -141.209      52.247
  C       79.343    -139.924      51.125
  C       80.220    -138.931      51.268
  O       86.182    -138.318      49.083
  O       85.556    -140.440      50.425
  H       81.164    -137.948      55.127
  H       86.497    -140.375      50.721
  H       79.219    -140.486      50.212
  H       80.869    -138.632      50.447
  H       80.778    -136.283      52.989
  H       82.798    -138.563      53.422
  H       84.474    -136.879      53.572
  H       83.190    -135.200      51.602
  H       77.022    -141.387      53.079
  H       84.215    -136.613      49.890
  H       77.402    -141.771      51.423
  H       85.352    -136.401      51.251
  P       84.532    -134.480      54.490
  C       85.222    -132.329      53.221
  O       84.291    -132.939      54.099
  O       85.650    -134.967      53.454
  O       84.941    -134.725      55.905
  H       86.229    -135.631      53.870
  H       84.938    -131.312      53.051
  H       85.233    -132.857      52.290
  H       86.198    -132.358      53.659

 6  7  8  9  10  11  12  13  14  15  16  26  30  31  32  33  35 0
 6-311+G(2d,p)
 ****
 37  38 0
 6-311+G(2d,p)
 ****
 1  2  3  4  5  17  18  19  20  21  22  23  24  25 0
 3-21G
 ****
 27  28  29  34  36  39  40  41  42  43  44  45  46 0
 3-21G
 ****


