%nproc=1
%NoSave
%Mem=1900MB
#P OB98/GEN NMR

erre ene a

0 1
  C     -246.348    -456.569    -369.406
  O     -246.429    -455.136    -369.453
  P     -245.262    -454.329    -368.695
  C     -246.841    -453.879    -366.691
  O     -245.594    -454.381    -367.122
  C     -246.959    -453.888    -365.154
  O     -245.912    -453.053    -364.566
  C     -248.309    -453.388    -364.627
  O     -248.611    -454.150    -363.436
  C     -247.990    -451.941    -364.252
  O     -248.967    -451.340    -363.425
  C     -246.598    -452.118    -363.678
  N     -243.528    -449.392    -360.640
  C     -244.140    -450.589    -360.464
  N     -244.950    -451.249    -361.322
  C     -245.099    -450.542    -362.473
  C     -244.541    -449.316    -362.780
  C     -243.724    -448.720    -361.808
  N     -243.120    -447.490    -361.955
  N     -244.961    -448.895    -364.049
  C     -245.800    -449.842    -364.432
  N     -245.861    -450.886    -363.562
  O     -245.526    -452.813    -369.099
  O     -243.893    -454.792    -369.066
  H     -249.084    -451.867    -362.612
  H     -244.934    -452.539    -369.812
  H     -243.952    -451.079    -359.518
  H     -246.385    -449.815    -365.346
  H     -246.627    -452.582    -362.674
  H     -247.946    -451.333    -365.174
  H     -249.134    -453.488    -365.348
  H     -246.786    -454.917    -364.807
  H     -247.655    -454.482    -367.111
  H     -242.562    -447.147    -361.187
  H     -243.255    -446.957    -362.789
  H     -246.979    -452.863    -367.084
  P     -249.478    -455.491    -363.593
  C     -251.776    -454.368    -363.772
  O     -250.754    -455.063    -364.471
  O     -250.126    -455.583    -362.130
  O     -248.731    -456.712    -364.013
  H     -250.530    -454.733    -361.860
  H     -252.538    -454.062    -364.512
  H     -251.379    -453.470    -363.297
  H     -252.245    -455.032    -363.035
  H     -247.173    -456.991    -369.941
  H     -246.380    -456.895    -368.387
  H     -245.431    -456.889    -369.854

 3  4  5  6  7  8  9  10  11  12  22  25  29  30  31  32 0
 6-311+G(2d,p)
 ****
 33  36  37 0
 6-311+G(2d,p)
 ****
 1  2  13  14  15  16  17  18  19  20  21  23  24  26 0
 3-21G
 ****
 27  28  34  35  38  39  40  41  42  43  44  45  46  47  48 0
 3-21G
 ****


