%nproc=1
%NoSave
%Mem=1900MB
#P OB98/GEN NMR

erre ene a

0 1
  C      -47.386      41.553    -274.454
  O      -48.484      41.712    -275.327
  H      -47.169      42.518    -273.988
  H      -46.502      41.228    -275.007
  H      -47.621      40.832    -273.667
  P      -49.004      40.431    -276.143
  C      -50.938      40.036    -274.465
  O      -49.740      39.530    -275.032
  C      -51.967      38.919    -274.320
  O      -52.153      38.211    -275.565
  C      -51.595      37.833    -273.317
  O      -51.715      38.235    -271.964
  C      -52.611      36.770    -273.694
  O      -53.906      37.135    -273.184
  C      -52.569      36.856    -275.237
  N      -51.657      35.880    -275.831
  C      -52.195      34.625    -276.138
  O      -53.376      34.373    -275.901
  N      -51.373      33.664    -276.676
  C      -50.117      33.928    -276.868
  N      -49.345      32.936    -277.398
  C      -49.504      35.229    -276.543
  C      -50.320      36.148    -276.035
  O      -47.981      39.722    -276.970
  O      -50.247      40.973    -276.992
  H      -53.850      37.086    -272.212
  H      -50.601      40.221    -277.525
  H      -48.447      35.387    -276.695
  H      -49.944      37.129    -275.765
  H      -53.570      36.711    -275.663
  H      -52.373      35.784    -273.291
  H      -50.591      37.439    -273.519
  H      -52.928      39.386    -274.070
  H      -49.793      32.056    -277.611
  H      -51.314      40.833    -275.116
  H      -48.346      33.028    -277.511
  H      -50.738      40.451    -273.473
  P      -50.929      37.361    -270.869
  C      -48.627      38.596    -270.891
  O      -49.377      37.447    -271.255
  O      -51.342      35.862    -271.241
  O      -51.229      37.704    -269.444
  H      -52.061      35.547    -270.661
  H      -47.617      38.484    -271.226
  H      -48.640      38.708    -269.827
  H      -49.059      39.463    -271.346

 6  7  8  9  10  11  12  13  14  15  16  26  30  31  32  33  35 0
 6-311+G(2d,p)
 ****
 37  38 0
 6-311+G(2d,p)
 ****
 1  2  3  4  5  17  18  19  20  21  22  23  24  25 0
 3-21G
 ****
 27  28  29  34  36  39  40  41  42  43  44  45  46 0
 3-21G
 ****


