%nproc=1
%NoSave
%Mem=1900MB
#P OB98/GEN NMR

erre ene a

0 1
  C     -827.621    -550.652     127.530
  O     -826.792    -550.332     126.427
  H     -828.384    -549.871     127.636
  H     -827.029    -550.685     128.445
  H     -828.130    -551.604     127.375
  P     -825.715    -551.408     125.937
  C     -827.037    -551.899     123.771
  O     -826.474    -552.429     124.962
  C     -827.861    -552.957     123.037
  O     -828.995    -553.338     123.894
  C     -828.456    -552.491     121.691
  O     -828.551    -553.642     120.847
  C     -829.831    -552.002     122.133
  O     -830.691    -551.754     121.062
  C     -830.196    -553.134     123.105
  N     -831.333    -552.877     123.968
  C     -832.598    -553.256     123.516
  O     -832.807    -553.811     122.435
  N     -833.649    -552.997     124.368
  C     -833.557    -552.406     125.598
  O     -834.524    -552.212     126.314
  C     -832.202    -552.007     126.021
  C     -831.160    -552.259     125.205
  O     -824.897    -552.045     127.010
  O     -824.794    -550.578     124.917
  H     -823.959    -550.322     125.363
  H     -831.568    -551.472     121.420
  H     -834.572    -553.262     124.055
  H     -832.081    -551.539     126.980
  H     -830.148    -552.005     125.496
  H     -830.371    -554.067     122.543
  H     -829.734    -551.043     122.663
  H     -827.835    -551.721     121.204
  H     -827.253    -553.859     122.909
  H     -826.207    -551.568     123.125
  H     -827.669    -551.035     124.019
  P     -827.383    -554.120     119.864
  C     -826.776    -556.027     121.511
  O     -826.306    -554.940     120.739
  O     -826.786    -553.028     119.049
  O     -828.045    -555.253     118.931
  H     -827.562    -555.296     118.077
  H     -825.957    -556.473     122.035
  H     -827.226    -556.754     120.867
  H     -827.501    -555.677     122.215

 6  7  8  9  10  11  12  13  14  15  16  27  31  32  33  34  35 0
 6-311+G(2d,p)
 ****
 36  37 0
 6-311+G(2d,p)
 ****
 1  2  3  4  5  17  18  19  20  21  22  23  24  25 0
 3-21G
 ****
 26  28  29  30  38  39  40  41  42  43  44  45 0
 3-21G
 ****


