%nproc=1
%NoSave
%Mem=1900MB
#P OB98/GEN NMR

erre ene a

0 1
  C      138.531      21.057      26.353
  O      139.766      21.258      25.677
  P      140.297      22.761      25.500
  C      138.956      23.001      23.292
  O      139.224      23.532      24.582
  C      138.029      23.924      22.499
  O      136.759      24.033      23.195
  C      138.563      25.349      22.306
  O      138.093      25.810      21.034
  C      137.864      26.128      23.406
  O      137.830      27.527      23.138
  C      136.502      25.438      23.404
  N      133.640      28.691      26.119
  C      134.178      28.785      24.885
  N      134.928      27.873      24.230
  C      135.107      26.776      24.982
  C      134.648      26.552      26.270
  C      133.874      27.572      26.847
  N      133.315      27.476      28.100
  N      135.058      25.315      26.723
  C      135.752      24.802      25.727
  N      135.787      25.636      24.648
  O      141.554      22.575      24.528
  O      140.680      23.455      26.761
  H      137.337      27.964      23.858
  H      142.381      22.768      25.011
  H      133.974      29.709      24.352
  H      136.244      23.838      25.741
  H      135.861      25.790      22.586
  H      138.387      25.977      24.356
  H      139.653      25.429      22.360
  H      137.826      23.455      21.527
  H      138.466      22.030      23.407
  H      132.662      28.189      28.389
  H      133.324      26.578      28.572
  H      139.896      22.855      22.753
  P      139.188      26.412      20.030
  C      138.415      28.751      20.843
  O      139.499      27.901      20.528
  O      138.366      26.627      18.671
  O      140.374      25.529      19.821
  H      138.966      26.566      17.905
  H      138.712      29.415      21.658
  H      137.529      28.183      21.155
  H      138.163      29.353      19.966
  H      138.312      20.010      26.392
  H      137.750      21.566      25.828
  H      138.602      21.444      27.348

 3  4  5  6  7  8  9  10  11  12  22  25  29  30  31  32 0
 6-311+G(2d,p)
 ****
 33  36  37 0
 6-311+G(2d,p)
 ****
 1  2  13  14  15  16  17  18  19  20  21  23  24  26 0
 3-21G
 ****
 27  28  34  35  38  39  40  41  42  43  44  45  46  47  48 0
 3-21G
 ****


