%nproc=1
%NoSave
%Mem=1900MB
#P OB98/GEN NMR

erre ene a

0 1
  C      460.297     157.522     162.911
  O      460.614     158.286     164.059
  H      460.460     156.462     163.121
  H      459.242     157.675     162.668
  H      460.908     157.832     162.055
  P      462.169     158.457     164.423
  C      463.559     160.421     165.405
  O      462.285     159.801     165.300
  C      463.425     161.844     165.950
  O      462.739     162.655     164.944
  C      462.620     161.949     167.258
  O      463.237     162.947     168.087
  C      461.263     162.461     166.793
  O      460.567     163.166     167.820
  C      461.663     163.338     165.611
  N      459.056     166.875     163.038
  C      460.275     166.903     163.620
  N      460.921     165.891     164.244
  C      460.208     164.748     164.168
  C      458.956     164.568     163.593
  C      458.362     165.711     163.027
  N      457.095     165.712     162.489
  N      458.535     163.266     163.768
  C      459.499     162.675     164.453
  N      460.531     163.533     164.715
  O      462.809     158.873     163.008
  O      462.830     157.251     165.003
  H      459.821     163.650     167.417
  H      463.047     158.071     162.511
  H      460.793     167.855     163.601
  H      459.492     161.651     164.800
  H      462.018     164.328     165.913
  H      460.643     161.618     166.473
  H      462.547     161.007     167.807
  H      464.425     162.270     166.070
  H      464.020     160.457     164.413
  H      456.706     166.602     162.195
  H      456.524     164.885     162.574
  H      464.201     159.827     166.067
  P      463.830     162.468     169.497
  C      465.032     163.631     171.501
  O      464.171     163.766     170.376
  O      465.272     161.891     169.115
  O      462.983     161.442     170.191
  H      465.508     161.156     169.706
  H      465.154     164.584     171.973
  H      465.985     163.267     171.179
  H      464.604     162.941     172.197

 6  7  8  9  10  11  12  13  14  15  25  28  32  33  34  35 0
 6-311+G(2d,p)
 ****
 36  39  40 0
 6-311+G(2d,p)
 ****
 1  2  3  4  5  16  17  18  19  20  21  22  23  24 0
 3-21G
 ****
 26  27  29  30  31  37  38  41  42  43  44  45  46  47 0
 3-21G
 ****
 48 0
 3-21G
 ****


