%nproc=1
%NoSave
%Mem=1900MB
#P OB98/GEN NMR

erre ene a

0 1
  C      -53.146     328.211     -68.338
  O      -53.807     329.079     -67.433
  P      -55.315     328.708     -67.016
  C      -56.613     330.036     -68.832
  O      -56.227     329.948     -67.466
  C      -57.111     331.442     -69.181
  O      -58.268     331.746     -68.365
  C      -56.073     332.544     -68.963
  O      -56.235     333.508     -70.005
  C      -56.491     333.167     -67.645
  O      -56.031     334.513     -67.530
  C      -58.017     333.005     -67.708
  N      -58.632     333.050     -66.384
  C      -59.606     334.029     -66.173
  O      -59.855     334.854     -67.054
  N      -60.239     334.086     -64.955
  C      -59.852     333.303     -63.997
  N      -60.508     333.396     -62.810
  C      -58.742     332.340     -64.142
  C      -58.198     332.251     -65.354
  O      -55.284     328.829     -65.423
  O      -55.772     327.361     -67.477
  H      -56.410     334.895     -66.707
  H      -55.902     328.192     -65.015
  H      -58.433     331.735     -63.301
  H      -57.394     331.557     -65.559
  H      -58.464     333.797     -68.327
  H      -56.078     332.588     -66.810
  H      -55.046     332.167     -68.965
  H      -57.445     331.435     -70.226
  H      -61.255     334.073     -62.730
  H      -57.430     329.330     -69.018
  H      -60.276     332.825     -62.007
  H      -55.767     329.757     -69.467
  P      -54.974     333.799     -70.955
  C      -55.206     336.342     -70.681
  O      -55.251     335.249     -71.579
  O      -55.295     332.846     -72.207
  O      -53.608     333.539     -70.416
  H      -54.558     332.881     -72.843
  H      -55.274     337.269     -71.254
  H      -54.269     336.339     -70.121
  H      -56.056     336.292     -69.993
  H      -52.158     328.576     -68.525
  H      -53.692     328.171     -69.257
  H      -53.089     327.230     -67.914

 3  4  5  6  7  8  9  10  11  12  13  21  23  27  28  29  30  32 0
 6-311+G(2d,p)
 ****
 34  35 0
 6-311+G(2d,p)
 ****
 1  2  14  15  16  17  18  19  20  22  24  25  26 0
 3-21G
 ****
 31  33  36  37  38  39  40  41  42  43  44  45  46 0
 3-21G
 ****


