%nproc=1
%NoSave
%Mem=1900MB
#P OB98/GEN NMR

erre ene a

0 1
  C      253.076     -58.486      64.059
  O      252.254     -57.341      63.920
  P      250.830     -57.436      63.202
  C      249.806     -55.278      64.291
  O      250.203     -55.972      63.129
  C      249.515     -53.818      63.922
  O      250.735     -53.046      63.948
  C      248.910     -53.700      62.524
  O      247.496     -53.664      62.594
  C      249.526     -52.413      62.007
  O      248.806     -51.273      62.508
  C      250.941     -52.469      62.631
  N      251.973     -53.267      61.939
  C      251.968     -53.341      60.551
  O      251.160     -52.753      59.837
  N      252.925     -54.156      59.993
  C      253.887     -54.838      60.681
  O      254.570     -55.736      60.204
  C      254.006     -54.502      62.103
  C      253.049     -53.765      62.662
  O      249.921     -58.172      64.295
  O      250.818     -58.152      61.891
  H      248.890     -51.282      63.477
  H      249.845     -59.124      64.094
  H      252.840     -54.323      58.998
  H      254.840     -54.910      62.658
  H      253.096     -53.535      63.723
  H      251.349     -51.461      62.767
  H      249.465     -52.357      60.921
  H      249.252     -54.529      61.895
  H      248.833     -53.392      64.668
  H      250.596     -55.332      65.048
  H      248.912     -55.744      64.719
  P      246.642     -53.463      61.257
  C      244.906     -55.262      61.826
  O      245.144     -53.880      61.644
  O      247.195     -54.122      60.036
  O      246.578     -51.870      61.097
  H      247.266     -51.573      60.463
  H      243.912     -55.393      62.257
  H      245.650     -55.694      62.500
  H      244.943     -55.771      60.858
  H      253.981     -58.217      64.563
  H      253.310     -58.877      63.091
  H      252.558     -59.230      64.628

 3  4  5  6  7  8  9  10  11  12  13  23  28  29  30  31  32 0
 6-311+G(2d,p)
 ****
 33  34 0
 6-311+G(2d,p)
 ****
 1  2  14  15  16  17  18  19  20  21  22  24  25  26  27 0
 3-21G
 ****
 35  36  37  38  39  40  41  42  43  44  45 0
 3-21G
 ****


