%nproc=1
%NoSave
%Mem=1900MB
#P OB98/GEN NMR

erre ene a

0 1
  C      -51.135    -264.036     -53.871
  O      -50.443    -264.689     -54.917
  P      -50.898    -266.134     -55.446
  C      -49.430    -267.453     -53.795
  O      -50.754    -267.125     -54.189
  C      -49.302    -268.935     -53.442
  O      -47.898    -269.304     -53.374
  C      -49.948    -269.333     -52.103
  O      -50.448    -270.664     -52.277
  C      -48.765    -269.328     -51.156
  O      -49.011    -270.073     -49.969
  C      -47.661    -269.878     -52.067
  N      -46.325    -269.570     -51.566
  C      -45.850    -270.358     -50.511
  O      -46.576    -271.218     -50.003
  N      -44.590    -270.127     -50.026
  C      -43.906    -269.119     -50.475
  N      -42.655    -268.940     -49.960
  C      -44.414    -268.185     -51.500
  C      -45.621    -268.474     -52.003
  O      -50.217    -266.597     -56.691
  O      -52.485    -265.998     -55.598
  H      -48.201    -270.045     -49.411
  H      -52.714    -265.500     -56.421
  H      -43.836    -267.329     -51.804
  H      -46.076    -267.847     -52.754
  H      -47.751    -270.967     -52.171
  H      -48.533    -268.295     -50.860
  H      -50.750    -268.657     -51.786
  H      -49.751    -269.517     -54.259
  H      -42.338    -269.616     -49.274
  H      -49.183    -266.859     -52.909
  H      -42.013    -268.243     -50.301
  H      -48.723    -267.180     -54.587
  P      -51.930    -271.064     -51.814
  C      -51.030    -271.352     -49.436
  O      -52.030    -270.764     -50.246
  O      -52.374    -272.433     -52.223
  O      -52.867    -269.933     -52.463
  H      -53.796    -270.237     -52.455
  H      -51.027    -270.859     -48.457
  H      -50.039    -271.237     -49.891
  H      -51.244    -272.415     -49.300
  H      -50.673    -263.091     -53.673
  H      -51.102    -264.641     -52.989
  H      -52.154    -263.881     -54.159

 3  4  5  6  7  8  9  10  11  12  13  23  27  28  29  30  32 0
 6-311+G(2d,p)
 ****
 34  35 0
 6-311+G(2d,p)
 ****
 1  2  14  15  16  17  18  19  20  21  22  24  25  26 0
 3-21G
 ****
 31  33  36  37  38  39  40  41  42  43  44  45  46 0
 3-21G
 ****


