%nproc=1
%NoSave
%Mem=1900MB
#P OB98/GEN NMR

erre ene a

0 1
  C      136.007      93.303      53.637
  O      135.636      93.438      54.997
  P      134.991      94.824      55.480
  C      137.217      95.925      56.337
  O      136.157      95.923      55.400
  C      137.485      97.348      56.837
  O      138.431      97.290      57.939
  C      138.071      98.293      55.779
  O      137.532      99.598      56.030
  C      139.557      98.261      56.085
  O      140.244      99.397      55.583
  C      139.531      98.163      57.615
  N      140.777      97.651      58.187
  C      140.909      97.659      59.571
  O      140.049      98.089      60.338
  N      142.096      97.173      60.058
  C      143.160      96.754      59.316
  O      144.205      96.346      59.805
  C      142.981      96.814      57.858
  C      141.816      97.243      57.371
  O      134.815      94.555      57.046
  O      133.738      95.188      54.758
  H      135.532      94.016      57.422
  H      141.184      99.315      55.830
  H      142.199      97.135      61.063
  H      143.810      96.504      57.233
  H      141.660      97.297      56.299
  H      139.304      99.143      58.050
  H      140.002      97.367      55.634
  H      137.829      97.980      54.758
  H      136.546      97.755      57.235
  H      138.122      95.538      55.863
  H      136.963      95.259      57.171
  P      136.733     100.330      54.840
  C      138.786     101.812      54.175
  O      137.818     100.864      53.791
  O      136.274     101.673      55.593
  O      135.581      99.556      54.285
  H      137.000     102.103      56.073
  H      139.608     101.790      53.456
  H      139.187     101.593      55.169
  H      138.341     102.810      54.173
  H      136.419      92.329      53.475
  H      136.738      94.045      53.391
  H      135.144      93.433      53.017

 3  4  5  6  7  8  9  10  11  12  13  24  28  29  30  31  32 0
 6-311+G(2d,p)
 ****
 33  34 0
 6-311+G(2d,p)
 ****
 1  2  14  15  16  17  18  19  20  21  22  23  25  26  27 0
 3-21G
 ****
 35  36  37  38  39  40  41  42  43  44  45 0
 3-21G
 ****


