%nproc=1
%NoSave
%Mem=1900MB
#P OB98/GEN NMR

erre ene a

0 1
  C      217.920     166.810    -317.563
  O      219.032     167.466    -316.945
  P      218.787     168.971    -316.433
  C      217.434     168.596    -314.241
  O      218.687     168.922    -314.831
  C      217.467     168.851    -312.736
  O      216.134     168.944    -312.199
  C      218.140     167.749    -311.932
  O      219.556     167.858    -311.974
  C      217.620     168.047    -310.532
  O      218.408     169.087    -309.925
  C      216.193     168.548    -310.807
  N      213.164     166.401    -307.355
  C      214.086     167.421    -307.215
  N      214.195     167.964    -305.981
  N      214.832     167.868    -308.189
  C      214.590     167.252    -309.372
  C      213.709     166.233    -309.640
  C      212.912     165.725    -308.544
  O      212.105     164.802    -308.607
  N      213.740     165.872    -310.961
  C      214.619     166.694    -311.501
  N      215.175     167.539    -310.573
  O      217.281     169.266    -316.889
  O      219.747     169.966    -316.995
  H      219.306     168.722    -309.785
  H      217.153     170.223    -317.023
  H      212.620     166.090    -306.567
  H      214.885     166.717    -312.552
  H      215.946     169.430    -310.207
  H      217.674     167.179    -309.865
  H      213.602     167.717    -305.204
  H      217.794     166.759    -312.253
  H      214.839     168.736    -305.868
  H      217.979     169.808    -312.563
  H      217.197     167.546    -314.428
  H      216.650     169.189    -314.723
  P      220.379     166.559    -312.430
  C      220.541     167.007    -314.980
  O      221.200     167.008    -313.731
  O      219.238     165.592    -313.006
  O      221.168     165.912    -311.343
  H      219.502     164.659    -312.901
  H      219.536     167.430    -314.899
  H      220.481     165.985    -315.365
  H      221.118     167.615    -315.683
  H      218.207     165.822    -317.858
  H      217.613     167.364    -318.425
  H      217.108     166.753    -316.868

 3  4  5  6  7  8  9  10  11  12  23  26  30  31  33  0
 6-311+G(2d,p)
 ****
 35  36  37  38 0
 6-311+G(2d,p)
 ****
 1  2  13  14  15  16  17  18  19  20  21  22  24  25  27  28  29 0
 3-21G
 ****
 32  34  39  40  41  42  43  44  45  46  47  48  49 0
 3-21G
 ****


