%nproc=1
%NoSave
%Mem=1900MB
#P OB98/GEN NMR

erre ene a

0 1
  C      -23.754     -85.901      66.767
  O      -23.618     -87.301      66.902
  H      -24.212     -85.507      67.677
  H      -24.397     -85.655      65.917
  H      -22.773     -85.435      66.640
  P      -23.075     -88.138      65.644
  C      -25.498     -88.783      64.992
  O      -24.302     -88.127      64.604
  C      -26.093     -89.542      63.808
  O      -26.350     -88.655      62.701
  C      -25.197     -90.633      63.231
  O      -25.126     -91.793      64.042
  C      -25.908     -90.887      61.912
  O      -27.097     -91.663      62.148
  C      -26.267     -89.444      61.481
  N      -25.289     -88.864      60.563
  C      -24.973     -89.616      59.425
  O      -25.505     -90.708      59.230
  N      -24.031     -89.131      58.550
  C      -23.442     -88.004      58.799
  N      -22.482     -87.591      57.924
  C      -23.756     -87.170      59.975
  C      -24.673     -87.655      60.809
  O      -22.502     -89.486      65.944
  O      -22.038     -87.151      64.928
  H      -26.823     -92.463      62.632
  H      -21.663     -87.629      64.147
  H      -23.229     -86.242      60.140
  H      -24.946     -87.109      61.704
  H      -27.256     -89.413      61.010
  H      -25.298     -91.438      61.191
  H      -24.196     -90.244      63.018
  H      -27.063     -89.945      64.128
  H      -22.264     -88.208      57.154
  H      -26.196     -88.027      65.365
  H      -21.798     -86.889      58.186
  H      -25.291     -89.501      65.792
  P      -23.681     -92.451      64.287
  C      -24.113     -94.413      62.628
  O      -23.323     -93.283      62.963
  O      -23.985     -93.583      65.375
  O      -22.605     -91.508      64.724
  H      -23.828     -93.252      66.281
  H      -23.744     -94.851      61.724
  H      -25.129     -94.109      62.488
  H      -24.062     -95.131      63.419

 6  7  8  9  10  11  12  13  14  15  16  26  30  31  32  33  35 0
 6-311+G(2d,p)
 ****
 37  38 0
 6-311+G(2d,p)
 ****
 1  2  3  4  5  17  18  19  20  21  22  23  24  25 0
 3-21G
 ****
 27  28  29  34  36  39  40  41  42  43  44  45  46 0
 3-21G
 ****


