%nproc=1
%NoSave
%Mem=1900MB
#P OB98/GEN NMR

erre ene a

0 1
  C       10.595    -145.840      81.095
  O       11.576    -145.607      82.085
  H        9.727    -146.308      81.567
  H       10.983    -146.518      80.330
  H       10.276    -144.900      80.634
  P       12.895    -144.788      81.687
  C       14.575    -146.745      81.626
  O       13.840    -145.791      80.870
  C       15.576    -147.464      80.724
  O       14.882    -148.332      79.802
  C       16.411    -146.526      79.860
  O       17.433    -145.906      80.617
  C       16.905    -147.485      78.789
  O       18.033    -148.241      79.257
  C       15.673    -148.395      78.591
  N       14.877    -148.029      77.419
  C       15.434    -148.315      76.176
  O       16.548    -148.818      76.035
  N       14.673    -147.974      75.090
  C       13.493    -147.287      75.121
  O       12.894    -146.924      74.112
  C       12.964    -146.989      76.460
  C       13.667    -147.367      77.530
  O       13.563    -144.056      82.802
  O       12.381    -143.778      80.553
  H       18.772    -147.607      79.347
  H       12.306    -142.880      80.928
  H       15.066    -148.161      74.181
  H       12.024    -146.458      76.527
  H       13.296    -147.152      78.525
  H       15.987    -149.441      78.477
  H       17.220    -146.967      77.883
  H       15.766    -145.774      79.390
  H       16.223    -148.091      81.354
  H       13.876    -147.475      82.048
  H       15.091    -146.231      82.445
  P       17.876    -144.405      80.279
  C       19.729    -145.262      78.717
  O       18.589    -144.418      78.842
  O       18.636    -143.706      81.356
  O       16.491    -143.655      79.985
  H       16.377    -142.926      80.624
  H       20.119    -145.190      77.723
  H       19.447    -146.275      78.917
  H       20.478    -144.956      79.417

 6  7  8  9  10  11  12  13  14  15  16  26  31  32  33  34  35 0
 6-311+G(2d,p)
 ****
 36  37 0
 6-311+G(2d,p)
 ****
 1  2  3  4  5  17  18  19  20  21  22  23  24  25 0
 3-21G
 ****
 27  28  29  30  38  39  40  41  42  43  44  45 0
 3-21G
 ****


