%nproc=1
%NoSave
%Mem=1900MB
#P OB98/GEN NMR

erre ene a

0 1
  C       82.545     555.663    -397.354
  O       82.910     555.545    -398.712
  H       82.258     554.674    -396.981
  H       81.690     556.338    -397.245
  H       83.391     556.030    -396.768
  P       83.268     556.904    -399.487
  C       81.299     557.452    -401.098
  O       81.876     557.637    -399.811
  C       80.738     556.036    -401.204
  O       79.808     555.794    -400.121
  C       79.952     555.775    -402.482
  O       80.786     555.529    -403.601
  C       79.147     554.552    -402.080
  O       79.895     553.341    -402.258
  C       78.857     554.810    -400.589
  N       77.477     555.234    -400.367
  C       76.497     554.370    -400.855
  O       76.747     553.315    -401.426
  N       75.201     554.789    -400.687
  C       74.808     555.974    -400.142
  O       73.627     556.311    -400.082
  C       75.885     556.857    -399.668
  C       77.154     556.453    -399.803
  O       83.770     556.388    -400.918
  O       84.287     557.766    -398.813
  H       84.739     556.483    -400.979
  H       80.292     553.395    -403.148
  H       74.478     554.177    -401.033
  H       75.605     557.807    -399.232
  H       77.970     557.088    -399.469
  H       79.032     553.903    -399.998
  H       78.242     554.465    -402.680
  H       79.258     556.605    -402.678
  H       81.566     555.323    -401.112
  H       82.067     557.588    -401.867
  H       80.513     558.196    -401.248
  P       80.196     555.862    -405.060
  C       79.613     553.816    -406.609
  O       79.303     554.592    -405.467
  O       81.520     555.723    -405.944
  O       79.516     557.187    -405.129
  H       82.163     555.116    -405.543
  H       78.902     553.022    -406.704
  H       80.595     553.405    -406.505
  H       79.576     554.435    -407.481

 6  7  8  9  10  11  12  13  14  15  16  27  31  32  33  34  35 0
 6-311+G(2d,p)
 ****
 36  37 0
 6-311+G(2d,p)
 ****
 1  2  3  4  5  17  18  19  20  21  22  23  24  25 0
 3-21G
 ****
 26  28  29  30  38  39  40  41  42  43  44  45 0
 3-21G
 ****


