%nproc=1
%NoSave
%Mem=1900MB
#P OB98/GEN NMR

erre ene a

0 1
  C     1040.212       6.578    -454.730
  O     1040.015       5.363    -455.422
  H     1039.909       7.402    -455.377
  H     1041.264       6.713    -454.453
  H     1039.582       6.608    -453.832
  P     1040.491       4.002    -454.708
  C     1042.970       4.191    -455.439
  O     1042.046       4.187    -454.365
  C     1044.081       5.213    -455.204
  O     1044.818       4.834    -454.004
  C     1045.099       5.313    -456.354
  O     1045.604       6.655    -456.382
  C     1046.174       4.334    -455.900
  O     1047.358       4.499    -456.633
  C     1046.206       4.672    -454.403
  N     1046.877       3.645    -453.621
  C     1047.942       4.073    -452.831
  O     1048.290       5.263    -452.826
  N     1048.637       3.144    -452.078
  C     1048.311       1.885    -452.169
  N     1049.035       1.018    -451.424
  C     1047.231       1.376    -453.046
  C     1046.558       2.312    -453.728
  O     1040.155       2.732    -455.444
  O     1039.785       4.054    -453.273
  H     1047.297       4.056    -457.502
  H     1039.037       3.433    -453.255
  H     1047.015       0.325    -453.111
  H     1045.742       2.047    -454.393
  H     1046.704       5.624    -454.227
  H     1045.847       3.315    -456.050
  H     1044.654       5.054    -457.332
  H     1043.622       6.188    -455.000
  H     1049.782       1.394    -450.852
  H     1042.412       4.449    -456.346
  H     1048.901       0.020    -451.437
  H     1043.403       3.197    -455.578
  P     1045.115       7.745    -457.455
  C     1046.667       6.790    -459.281
  O     1045.340       7.172    -458.950
  O     1045.683       9.107    -457.225
  O     1043.508       7.787    -457.317
  H     1043.205       8.672    -457.518
  H     1046.694       6.429    -460.288
  H     1046.992       6.017    -458.616
  H     1047.315       7.636    -459.188

 6  7  8  9  10  11  12  13  14  15  16  26  30  31  32  33  35 0
 6-311+G(2d,p)
 ****
 37  38 0
 6-311+G(2d,p)
 ****
 1  2  3  4  5  17  18  19  20  21  22  23  24  25 0
 3-21G
 ****
 27  28  29  34  36  39  40  41  42  43  44  45  46 0
 3-21G
 ****


