%nproc=1
%NoSave
%Mem=1900MB
#P OB98/GEN NMR

erre ene a

0 1
  C     -281.542     353.869    -275.014
  O     -282.873     354.073    -274.595
  H     -280.938     353.613    -274.140
  H     -281.137     354.783    -275.456
  H     -281.482     353.046    -275.732
  P     -283.978     354.503    -275.676
  C     -285.416     352.431    -275.179
  O     -284.657     353.128    -276.161
  C     -285.826     351.043    -275.681
  O     -284.636     350.286    -276.057
  C     -286.600     350.213    -274.645
  O     -287.753     349.634    -275.253
  C     -285.611     349.119    -274.258
  O     -286.246     347.951    -273.760
  C     -284.840     348.942    -275.575
  N     -283.594     348.227    -275.392
  C     -283.658     346.823    -275.518
  O     -284.735     346.289    -275.772
  N     -282.534     346.085    -275.282
  C     -281.434     346.679    -274.929
  N     -280.363     345.887    -274.691
  C     -281.328     348.150    -274.758
  C     -282.427     348.851    -275.001
  O     -283.475     355.386    -276.766
  O     -285.147     355.183    -274.813
  H     -286.896     348.217    -273.076
  H     -285.674     355.774    -275.403
  H     -280.391     348.589    -274.446
  H     -282.447     349.935    -274.901
  H     -285.448     348.411    -276.318
  H     -284.935     349.496    -273.483
  H     -286.907     350.796    -273.780
  H     -286.405     351.172    -276.607
  H     -280.481     344.892    -274.809
  H     -286.302     353.035    -274.938
  H     -279.464     346.228    -274.374
  H     -284.799     352.322    -274.284
  P     -289.036     350.585    -275.399
  C     -289.003     350.387    -277.990
  O     -288.984     351.255    -276.859
  O     -288.712     351.803    -274.405
  O     -290.320     349.909    -275.049
  H     -289.303     351.760    -273.633
  H     -288.964     350.969    -278.887
  H     -289.902     349.808    -277.980
  H     -288.157     349.733    -277.952

 6  7  8  9  10  11  12  13  14  15  16  26  30  31  32  33  35 0
 6-311+G(2d,p)
 ****
 37  38 0
 6-311+G(2d,p)
 ****
 1  2  3  4  5  17  18  19  20  21  22  23  24  25 0
 3-21G
 ****
 27  28  29  34  36  39  40  41  42  43  44  45  46 0
 3-21G
 ****


