%nproc=1
%NoSave
%Mem=1900MB
#P OB98/GEN NMR

erre ene a

0 1
  C        2.368    -334.296    -141.927
  O        1.917    -332.967    -141.753
  H        2.192    -334.593    -142.964
  H        1.808    -334.968    -141.269
  H        3.438    -334.378    -141.717
  P        2.296    -332.192    -140.404
  C        0.998    -331.496    -138.285
  O        1.055    -332.372    -139.403
  C       -0.140    -331.897    -137.346
  O       -1.413    -331.679    -138.030
  C       -0.107    -333.375    -136.906
  O       -0.648    -333.445    -135.578
  C       -1.050    -334.003    -137.915
  O       -1.440    -335.297    -137.535
  C       -2.137    -332.924    -137.963
  N       -3.058    -333.071    -139.077
  C       -4.358    -333.473    -138.788
  O       -4.773    -333.688    -137.651
  N       -5.184    -333.636    -139.869
  C       -4.842    -333.445    -141.176
  O       -5.631    -333.584    -142.105
  C       -3.444    -333.048    -141.423
  C       -2.632    -332.883    -140.377
  O        2.772    -330.785    -140.574
  O        3.425    -333.116    -139.741
  H        4.308    -332.758    -139.955
  H       -2.229    -335.260    -136.955
  H       -6.130    -333.928    -139.678
  H       -3.137    -332.911    -142.448
  H       -1.594    -332.592    -140.521
  H       -2.706    -332.911    -137.025
  H       -0.555    -334.093    -138.890
  H        0.903    -333.799    -136.913
  H       -0.135    -331.225    -136.469
  H        0.833    -330.478    -138.655
  H        1.954    -331.530    -137.751
  P       -0.001    -334.330    -134.406
  C        0.057    -336.794    -133.648
  O       -0.341    -335.878    -134.660
  O       -0.362    -333.860    -133.033
  O        1.582    -334.243    -134.634
  H        2.028    -334.233    -133.762
  H       -0.224    -337.786    -133.934
  H       -0.424    -336.539    -132.727
  H        1.118    -336.747    -133.522

 6  7  8  9  10  11  12  13  14  15  16  27  31  32  33  34  35 0
 6-311+G(2d,p)
 ****
 36  37 0
 6-311+G(2d,p)
 ****
 1  2  3  4  5  17  18  19  20  21  22  23  24  25 0
 3-21G
 ****
 26  28  29  30  38  39  40  41  42  43  44  45 0
 3-21G
 ****


