%nproc=1
%NoSave
%Mem=1900MB
#P OB98/GEN NMR

erre ene a

0 1
  C     -890.070     440.791     388.502
  O     -891.200     441.041     389.318
  H     -889.840     439.726     388.535
  H     -889.210     441.350     388.863
  H     -890.290     441.072     387.462
  P     -891.630     442.576     389.489
  C     -892.260     442.935     391.996
  O     -892.690     442.537     390.705
  C     -893.460     443.003     392.946
  O     -894.320     444.121     392.607
  C     -894.360     441.774     392.911
  O     -893.840     440.672     393.628
  C     -895.600     442.348     393.585
  O     -895.360     442.468     395.002
  C     -895.680     443.737     392.916
  N     -896.500     443.744     391.695
  C     -897.890     443.610     391.873
  O     -898.370     443.498     393.001
  N     -898.700     443.578     390.759
  C     -898.170     443.678     389.580
  N     -899.010     443.634     388.517
  C     -896.710     443.833     389.341
  C     -895.950     443.853     390.431
  O     -892.570     442.847     388.223
  O     -890.520     443.557     389.658
  H     -895.260     441.566     395.341
  H     -893.010     443.728     388.305
  H     -896.330     443.901     388.336
  H     -894.870     443.964     390.340
  H     -896.080     444.484     393.608
  H     -896.490     441.734     393.458
  H     -894.610     441.495     391.885
  H     -893.070     443.184     393.957
  H     -900.000     443.481     388.703
  H     -891.790     443.918     391.915
  H     -898.700     443.562     387.555
  H     -891.530     442.212     392.382
  P     -893.490     439.349     392.791
  C     -894.310     437.684     394.613
  O     -893.220     438.181     393.855
  O     -892.040     439.662     392.195
  O     -894.480     439.005     391.704
  H     -891.930     439.255     391.307
  H     -893.965     436.915     395.272
  H     -895.050     437.283     393.953
  H     -894.738     438.479     395.187

 6  7  8  9  10  11  12  13  14  15  16  26  30  31  32  33  35 0
 6-311+G(2d,p)
 ****
 37  38 0
 6-311+G(2d,p)
 ****
 1  2  3  4  5  17  18  19  20  21  22  23  24  25 0
 3-21G
 ****
 27  28  29  34  36  39  40  41  42  43  44  45  46 0
 3-21G
 ****


