%nproc=1
%NoSave
%Mem=1900MB
#P OB98/GEN NMR

erre ene a

0 1
  C       -9.276      -2.686      25.013
  O       -7.910      -2.862      25.325
  H       -9.825      -3.571      25.344
  H       -9.410      -2.577      23.934
  H       -9.680      -1.812      25.530
  P       -6.880      -1.695      24.936
  C       -5.816      -0.945      22.697
  O       -6.668      -1.872      23.352
  C       -5.234      -1.567      21.431
  O       -4.401      -2.705      21.741
  C       -6.267      -2.107      20.449
  O       -6.963      -1.099      19.738
  C       -5.365      -2.932      19.548
  O       -4.631      -2.060      18.670
  C       -4.434      -3.594      20.590
  N       -4.888      -4.927      20.983
  C       -4.354      -6.007      20.271
  O       -3.553      -5.822      19.357
  N       -4.768      -7.279      20.588
  C       -5.655      -7.455      21.517
  N       -6.033      -8.735      21.785
  C       -6.259      -6.345      22.278
  C       -5.834      -5.123      21.966
  O       -5.628      -1.629      25.748
  O       -7.752      -0.354      24.995
  H       -3.896      -2.583      18.303
  H       -7.157       0.402      24.772
  H       -7.015      -6.542      23.023
  H       -6.236      -4.255      22.478
  H       -3.409      -3.668      20.207
  H       -5.911      -3.637      18.920
  H       -6.968      -2.785      20.951
  H       -4.588      -0.814      20.962
  H       -5.603      -9.475      21.247
  H       -5.023      -0.658      23.393
  H       -6.772      -8.959      22.438
  H       -6.381      -0.052      22.414
  P       -8.569      -1.172      19.756
  C      -10.264      -3.058      19.133
  O       -8.966      -2.509      18.970
  O       -8.996       0.006      18.765
  O       -9.196      -1.043      21.108
  H       -9.242       0.808      19.266
  H      -10.354      -3.943      18.539
  H      -10.996      -2.343      18.820
  H      -10.421      -3.302      20.163

 6  7  8  9  10  11  12  13  14  15  16  26  30  31  32  33  35 0
 6-311+G(2d,p)
 ****
 37  38 0
 6-311+G(2d,p)
 ****
 1  2  3  4  5  17  18  19  20  21  22  23  24  25 0
 3-21G
 ****
 27  28  29  34  36  39  40  41  42  43  44  45  46 0
 3-21G
 ****


