%nproc=1
%NoSave
%Mem=1900MB
#P OB98/GEN NMR

erre ene a

0 1
  C     -171.922     134.367     292.387
  O     -170.769     134.999     291.863
  H     -171.619     133.724     293.218
  H     -172.412     133.754     291.626
  H     -172.619     135.119     292.765
  P     -170.906     135.778     290.461
  C     -168.998     137.287     291.317
  O     -169.485     136.494     290.235
  C     -167.527     137.658     291.113
  O     -166.693     136.481     291.138
  C     -167.236     138.321     289.774
  O     -167.803     139.595     289.607
  C     -165.723     138.157     289.672
  O     -165.021     139.169     290.392
  C     -165.518     136.780     290.350
  N     -165.230     135.723     289.389
  C     -164.172     135.958     288.518
  O     -163.508     137.000     288.523
  N     -163.910     134.971     287.614
  C     -164.626     133.815     287.466
  O     -164.346     132.971     286.614
  C     -165.754     133.639     288.383
  C     -166.006     134.583     289.293
  O     -172.082     136.702     290.349
  O     -170.896     134.605     289.370
  H     -165.183     140.013     289.929
  H     -171.220     134.935     288.495
  H     -163.135     135.112     286.987
  H     -166.351     132.736     288.287
  H     -166.839     134.475     289.986
  H     -164.680     136.830     291.057
  H     -165.376     138.193     288.638
  H     -167.668     137.693     288.984
  H     -167.220     138.304     291.947
  H     -169.097     136.697     292.231
  H     -169.609     138.192     291.412
  P     -168.454     140.106     288.238
  C     -170.669     141.015     289.298
  O     -169.478     141.294     288.574
  O     -168.895     139.050     287.279
  O     -167.221     140.901     287.566
  H     -167.298     140.778     286.598
  H     -171.227     141.919     289.429
  H     -170.418     140.609     290.255
  H     -171.259     140.308     288.754

 6  7  8  9  10  11  12  13  14  15  16  26  31  32  33  34  35 0
 6-311+G(2d,p)
 ****
 36  37 0
 6-311+G(2d,p)
 ****
 1  2  3  4  5  17  18  19  20  21  22  23  24  25 0
 3-21G
 ****
 27  28  29  30  38  39  40  41  42  43  44  45 0
 3-21G
 ****


