%nproc=1
%NoSave
%Mem=1900MB
#P OB98/GEN NMR

erre ene a

0 1
  C     -421.528      -0.996      36.285
  O     -420.115      -1.027      36.312
  H     -421.852      -0.555      35.337
  H     -421.924      -0.393      37.107
  H     -421.928      -2.016      36.346
  P     -419.395      -1.394      37.699
  C     -418.711       1.065      38.107
  O     -419.458      -0.052      38.585
  C     -418.970       2.308      38.965
  O     -420.364       2.670      38.903
  C     -418.678       2.103      40.444
  O     -417.306       1.955      40.747
  C     -419.477       3.223      41.094
  O     -418.771       4.461      41.156
  C     -420.682       3.355      40.132
  N     -421.915       2.857      40.729
  C     -422.570       3.731      41.589
  O     -422.149       4.857      41.863
  N     -423.719       3.259      42.162
  C     -424.233       2.005      42.004
  O     -425.247       1.625      42.579
  C     -423.482       1.113      41.101
  C     -422.373       1.572      40.513
  O     -418.019      -1.978      37.583
  O     -420.444      -2.357      38.428
  H     -418.376       4.611      40.274
  H     -420.015      -2.860      39.162
  H     -424.214       3.882      42.779
  H     -423.859       0.110      40.953
  H     -421.799       0.932      39.848
  H     -420.840       4.409      39.869
  H     -419.764       2.968      42.116
  H     -419.155       1.164      40.756
  H     -418.382       3.138      38.557
  H     -419.036       1.267      37.079
  H     -417.644       0.821      38.101
  P     -416.714       0.702      41.544
  C     -416.101       1.823      43.806
  O     -416.972       0.937      43.112
  O     -415.377       0.197      41.105
  O     -417.797      -0.439      41.189
  H     -417.322      -1.290      41.129
  H     -416.394       1.879      44.834
  H     -416.158       2.797      43.366
  H     -415.097       1.460      43.741

 6  7  8  9  10  11  12  13  14  15  16  26  31  32  33  34  35 0
 6-311+G(2d,p)
 ****
 36  37 0
 6-311+G(2d,p)
 ****
 1  2  3  4  5  17  18  19  20  21  22  23  24  25 0
 3-21G
 ****
 27  28  29  30  38  39  40  41  42  43  44  45 0
 3-21G
 ****


