%nproc=1
%NoSave
%Mem=1900MB
#P OB98/GEN NMR

erre ene a

0 1
  C      -31.516    -245.138     381.976
  O      -31.792    -245.666     380.674
  P      -32.731    -244.775     379.718
  C      -32.464    -242.241     379.166
  O      -31.857    -243.527     379.215
  C      -32.128    -241.527     377.860
  O      -30.700    -241.351     377.720
  C      -32.551    -242.281     376.602
  O      -33.938    -242.111     376.335
  C      -31.707    -241.593     375.546
  O      -32.340    -240.375     375.125
  C      -30.401    -241.288     376.309
  N      -27.466    -243.295     372.690
  C      -28.463    -242.343     372.594
  N      -28.689    -241.831     371.362
  N      -29.170    -241.923     373.613
  C      -28.813    -242.502     374.787
  C      -27.846    -243.459     375.012
  C      -27.087    -243.933     373.870
  O      -26.220    -244.796     373.891
  N      -27.768    -243.794     376.342
  C      -28.668    -243.017     376.925
  N      -29.335    -242.230     376.023
  O      -33.761    -244.111     380.748
  O      -33.425    -245.555     378.655
  H      -33.255    -240.600     374.851
  H      -34.601    -243.905     380.294
  H      -26.957    -243.582     371.873
  H      -28.866    -242.995     377.990
  H      -30.035    -240.278     376.091
  H      -31.571    -242.205     374.645
  H      -28.132    -242.054     370.548
  H      -32.274    -243.342     376.671
  H      -29.392    -241.102     371.283
  H      -32.598    -240.537     377.877
  H      -32.119    -241.639     380.010
  H      -33.549    -242.358     379.282
  P      -34.867    -243.419     376.406
  C      -36.165    -244.202     378.513
  O      -34.923    -243.820     377.957
  O      -33.951    -244.554     375.743
  O      -36.183    -243.278     375.710
  H      -34.511    -245.236     375.327
  H      -36.712    -244.871     377.843
  H      -36.768    -243.307     378.716
  H      -35.984    -244.728     379.456
  H      -30.886    -245.818     382.511
  H      -32.434    -245.007     382.510
  H      -31.021    -244.194     381.881

 3  4  5  6  7  8  9  10  11  12  23  26  30  31  33  0
 6-311+G(2d,p)
 ****
 35  36  37  38 0
 6-311+G(2d,p)
 ****
 1  2  13  14  15  16  17  18  19  20  21  22  24  25  27  28  29 0
 3-21G
 ****
 32  34  39  40  41  42  43  44  45  46  47  48  49 0
 3-21G
 ****


