%nproc=1
%NoSave
%Mem=1900MB
#P OB98/GEN NMR

erre ene a

0 1
  C     -817.729       2.757    -451.059
  O     -817.123       1.558    -451.550
  P     -815.864       0.958    -450.783
  C     -813.963       2.215    -452.128
  O     -814.617       1.948    -450.908
  C     -812.600       2.876    -451.851
  O     -811.851       2.078    -450.901
  C     -811.739       3.049    -453.089
  O     -812.020       4.246    -453.774
  C     -810.335       2.999    -452.507
  O     -810.006       4.262    -451.898
  C     -810.491       1.907    -451.419
  N     -810.322       0.493    -451.818
  C     -809.135       0.087    -452.436
  O     -808.195       0.835    -452.668
  N     -809.047      -1.237    -452.769
  C     -809.931      -2.222    -452.410
  O     -809.766      -3.411    -452.679
  C     -811.095      -1.764    -451.628
  C     -811.246      -0.466    -451.391
  O     -815.430      -0.308    -451.673
  O     -816.141       0.562    -449.356
  H     -810.526       4.332    -451.082
  H     -815.560      -1.134    -451.175
  H     -808.241      -1.540    -453.269
  H     -811.793      -2.518    -451.284
  H     -812.103      -0.110    -450.820
  H     -809.804       2.086    -450.587
  H     -809.584       2.821    -453.284
  H     -811.857       2.181    -453.753
  H     -812.792       3.864    -451.379
  H     -814.570       2.878    -452.752
  H     -813.819       1.283    -452.681
  P     -812.628       4.192    -455.267
  C     -810.282       3.512    -455.999
  O     -811.655       3.212    -456.085
  O     -812.927       5.506    -455.907
  O     -813.947       3.281    -455.087
  H     -814.755       3.860    -454.985
  H     -809.706       2.697    -456.478
  H     -809.958       3.595    -454.963
  H     -810.057       4.449    -456.549
  H     -818.555       3.021    -451.685
  H     -817.009       3.549    -451.065
  H     -818.075       2.598    -450.059

 3  4  5  6  7  8  9  10  11  12  13  23  28  29  30  31  32 0
 6-311+G(2d,p)
 ****
 33  34 0
 6-311+G(2d,p)
 ****
 1  2  14  15  16  17  18  19  20  21  22  24  25  26  27 0
 3-21G
 ****
 35  36  37  38  39  40  41  42  43  44  45 0
 3-21G
 ****


