%nproc=1
%NoSave
%Mem=1900MB
#P OB98/GEN NMR

erre ene a

0 1
  C      -15.008    -187.795    -418.396
  O      -15.253    -187.425    -419.762
  P      -16.775    -187.205    -420.207
  C      -18.684    -188.609    -421.268
  O      -17.323    -188.570    -420.859
  C      -19.116    -190.047    -421.629
  O      -18.557    -190.443    -422.913
  C      -18.669    -191.098    -420.608
  O      -19.628    -192.165    -420.600
  C      -17.371    -191.611    -421.205
  O      -17.005    -192.883    -420.662
  C      -17.745    -191.614    -422.688
  N      -15.595    -193.793    -426.711
  C      -16.785    -194.081    -426.069
  N      -17.529    -195.076    -426.603
  N      -17.211    -193.447    -425.005
  C      -16.371    -192.454    -424.609
  C      -15.169    -192.079    -425.147
  C      -14.702    -192.803    -426.312
  O      -13.644    -192.600    -426.903
  N      -14.603    -191.039    -424.446
  C      -15.470    -190.794    -423.472
  N      -16.580    -191.600    -423.558
  O      -16.645    -186.213    -421.469
  O      -17.640    -186.605    -419.150
  H      -16.709    -192.723    -419.737
  H      -16.954    -185.328    -421.229
  H      -15.312    -194.316    -427.519
  H      -15.345    -190.055    -422.703
  H      -18.334    -192.497    -422.967
  H      -16.559    -190.904    -421.005
  H      -17.286    -195.561    -427.453
  H      -18.541    -190.715    -419.586
  H      -18.425    -195.274    -426.176
  H      -20.204    -190.065    -421.728
  H      -18.839    -187.958    -422.129
  H      -19.309    -188.202    -420.471
  P      -20.971    -191.928    -419.767
  C      -21.757    -192.531    -417.357
  O      -20.717    -192.576    -418.327
  O      -22.020    -192.936    -420.445
  O      -21.468    -190.520    -419.763
  H      -22.928    -192.622    -420.309
  H      -22.228    -193.514    -417.293
  H      -22.518    -191.781    -417.614
  H      -21.333    -192.278    -416.395
  H      -13.955    -187.908    -418.240
  H      -15.501    -188.720    -418.183
  H      -15.385    -187.032    -417.747

 3  4  5  6  7  8  9  10  11  12  23  26  30  31 0
 6-311+G(2d,p)
 ****
 33  35  36  37  38 0
 6-311+G(2d,p)
 ****
 1  2  13  14  15  16  17  18  19  20  21  22  24  25 0
 3-21G
 ****
 27  28  29  32  34  39  40  41  42  43  44  45  46  47  48  49 0
 3-21G
 ****


