%nproc=1
%NoSave
%Mem=1900MB
#P OB98/GEN NMR

erre ene a

0 1
  C      819.531     138.692     354.735
  O      820.701     139.078     354.048
  P      821.321     140.545     354.268
  C      820.947     140.786     351.727
  O      820.856     141.421     353.005
  C      819.703     141.089     350.899
  O      818.495     140.790     351.655
  C      819.554     142.555     350.508
  O      820.513     143.091     349.624
  C      818.095     142.599     350.071
  O      817.943     142.123     348.732
  C      817.441     141.621     351.077
  N      816.679     142.319     352.110
  C      815.313     142.422     351.905
  O      814.743     141.952     350.915
  N      814.606     143.102     352.858
  C      815.131     143.732     353.947
  O      814.455     144.370     354.738
  C      816.585     143.609     354.111
  C      817.288     142.922     353.201
  O      822.791     140.572     354.540
  O      820.426     141.148     355.449
  H      816.984     142.155     348.526
  H      819.475     141.209     355.248
  H      813.616     143.205     352.711
  H      817.039     144.086     354.977
  H      818.371     142.819     353.300
  H      816.759     140.942     350.552
  H      817.702     143.620     350.100
  H      819.631     143.153     351.423
  H      819.709     140.438     350.022
  H      821.021     139.703     351.877
  H      821.856     141.114     351.218
  P      821.683     144.087     350.086
  C      821.297     145.647     348.051
  O      821.392     145.525     349.445
  O      823.082     143.558     350.004
  O      821.307     144.329     351.631
  H      822.126     144.475     352.140
  H      821.136     146.703     347.794
  H      820.448     145.067     347.674
  H      822.216     145.291     347.574
  H      819.272     137.690     354.463
  H      818.730     139.351     354.473
  H      819.704     138.742     355.790

 3  4  5  6  7  8  9  10  11  12  13  23  28  29  30  31  32 0
 6-311+G(2d,p)
 ****
 33  34 0
 6-311+G(2d,p)
 ****
 1  2  14  15  16  17  18  19  20  21  22  24  25  26  27 0
 3-21G
 ****
 35  36  37  38  39  40  41  42  43  44  45 0
 3-21G
 ****


