%nproc=1
%NoSave
%Mem=1900MB
#P OB98/GEN NMR

erre ene a

0 1
  C     -438.363    -521.972    -985.433
  O     -438.214    -522.135    -986.818
  P     -439.389    -521.576    -987.759
  C     -438.002    -519.492    -988.459
  O     -438.666    -520.664    -988.875
  C     -437.252    -518.853    -989.645
  O     -436.107    -519.642    -990.021
  C     -438.106    -518.721    -990.895
  O     -439.001    -517.606    -990.780
  C     -437.010    -518.526    -991.970
  O     -436.649    -517.148    -992.087
  C     -435.849    -519.382    -991.413
  N     -435.603    -520.592    -992.162
  C     -434.630    -520.529    -993.167
  O     -434.021    -519.469    -993.370
  N     -434.375    -521.642    -993.921
  C     -435.073    -522.721    -993.724
  N     -434.791    -523.811    -994.484
  C     -436.133    -522.856    -992.686
  C     -436.374    -521.748    -991.956
  O     -440.130    -520.488    -986.838
  O     -440.320    -522.610    -988.288
  H     -436.044    -517.113    -992.881
  H     -441.059    -520.374    -987.084
  H     -436.689    -523.788    -992.572
  H     -437.133    -521.749    -991.205
  H     -434.900    -518.790    -991.419
  H     -437.357    -518.856    -992.948
  H     -438.655    -519.641    -991.097
  H     -436.870    -517.840    -989.318
  H     -434.043    -523.721    -995.217
  H     -437.233    -519.747    -987.696
  H     -435.239    -524.707    -994.411
  H     -438.698    -518.797    -988.027
  P     -439.984    -517.362    -992.008
  C     -441.872    -518.398    -990.636
  O     -441.442    -517.244    -991.365
  O     -440.024    -518.789    -992.725
  O     -439.603    -516.252    -992.954
  H     -440.518    -518.717    -993.576
  H     -442.787    -518.133    -990.090
  H     -441.131    -518.690    -989.894
  H     -442.069    -519.233    -991.308
  H     -437.514    -522.387    -984.932
  H     -439.250    -522.475    -985.108
  H     -438.439    -520.930    -985.203

 3  4  5  6  7  8  9  10  11  12  13  21  23  27  28  29  30  32 0
 6-311+G(2d,p)
 ****
 34  35 0
 6-311+G(2d,p)
 ****
 1  2  14  15  16  17  18  19  20  22  24  25  26 0
 3-21G
 ****
 31  33  36  37  38  39  40  41  42  43  44  45  46 0
 3-21G
 ****


