%nproc=1
%NoSave
%Mem=1900MB
#P OB98/GEN NMR

erre ene a

0 1
  C     -131.347     331.810      89.333
  O     -130.192     332.644      89.233
  P     -129.242     332.800      90.517
  C     -128.377     330.471      91.197
  O     -128.119     331.657      90.452
  C     -127.264     329.444      90.985
  O     -127.019     329.206      89.582
  C     -125.926     329.880      91.559
  O     -125.921     329.771      92.972
  C     -124.969     328.946      90.833
  O     -124.916     327.661      91.473
  C     -125.635     328.816      89.443
  N     -124.962     329.590      88.411
  C     -124.150     328.867      87.531
  O     -124.002     327.652      87.678
  N     -123.516     329.540      86.518
  C     -123.672     330.823      86.398
  N     -123.022     331.439      85.377
  C     -124.509     331.624      87.313
  C     -125.112     330.952      88.290
  O     -129.943     332.932      91.826
  O     -128.404     334.127      90.176
  H     -124.582     327.822      92.376
  H     -128.171     334.575      91.012
  H     -124.611     332.692      87.171
  H     -125.744     331.464      89.009
  H     -125.642     327.765      89.123
  H     -123.950     329.340      90.816
  H     -125.720     330.919      91.267
  H     -127.578     328.497      91.448
  H     -122.443     330.868      84.770
  H     -129.336     330.048      90.892
  H     -123.118     332.422      85.172
  H     -128.473     330.734      92.257
  P     -125.550     331.082      93.818
  C     -126.681     333.397      94.122
  O     -126.850     332.014      93.868
  O     -124.564     331.875      92.833
  O     -124.899     330.815      95.136
  H     -123.894     332.349      93.358
  H     -127.589     333.921      93.815
  H     -125.833     333.804      93.564
  H     -126.527     333.557      95.192
  H     -131.870     331.812      88.400
  H     -131.990     332.182      90.103
  H     -131.046     330.811      89.571

 3  4  5  6  7  8  9  10  11  12  13  23  27  28  29  30  32 0
 6-311+G(2d,p)
 ****
 34  35 0
 6-311+G(2d,p)
 ****
 1  2  14  15  16  17  18  19  20  21  22  24  25  26 0
 3-21G
 ****
 31  33  36  37  38  39  40  41  42  43  44  45  46 0
 3-21G
 ****


