%nproc=1
%NoSave
%Mem=1900MB
#P OB98/GEN NMR

erre ene a

0 1
  C      908.984     134.415      53.031
  O      909.288     135.630      53.686
  H      908.832     133.614      53.761
  H      908.064     134.548      52.455
  H      909.793     134.145      52.344
  P      910.555     135.612      54.669
  C      910.341     138.197      54.741
  O      910.513     136.996      55.486
  C      909.316     139.093      55.424
  O      908.018     138.451      55.440
  C      909.622     139.424      56.882
  O      910.603     140.443      57.009
  C      908.254     139.893      57.361
  O      908.052     141.269      56.963
  C      907.299     138.979      56.587
  N      903.674     137.402      59.881
  C      903.883     138.589      59.267
  N      904.872     138.945      58.417
  C      905.695     137.908      58.187
  C      905.608     136.629      58.728
  C      904.536     136.396      59.619
  N      904.340     135.179      60.242
  N      906.610     135.821      58.255
  C      907.309     136.591      57.442
  N      906.795     137.864      57.370
  O      911.801     135.800      53.681
  O      910.697     134.381      55.507
  H      908.724     141.797      57.423
  H      912.556     135.278      54.017
  H      903.159     139.371      59.498
  H      908.175     136.273      56.877
  H      906.439     139.530      56.197
  H      908.139     139.852      58.450
  H      909.912     138.520      57.441
  H      909.227     140.013      54.831
  H      909.992     137.956      53.734
  H      903.457     135.008      60.705
  H      904.991     134.421      60.036
  H      911.304     138.711      54.671
  P      911.855     140.161      57.975
  C      912.642     142.631      57.926
  O      912.156     141.553      58.712
  O      913.082     140.019      56.946
  O      911.718     138.954      58.845
  H      913.787     139.465      57.343
  H      912.795     143.487      58.550
  H      911.928     142.868      57.165
  H      913.569     142.351      57.471

 6  7  8  9  10  11  12  13  14  15  25  28  32  33  34  35 0
 6-311+G(2d,p)
 ****
 36  39  40 0
 6-311+G(2d,p)
 ****
 1  2  3  4  5  16  17  18  19  20  21  22  23  24 0
 3-21G
 ****
 26  27  29  30  31  37  38  41  42  43  44  45  46  47  48 0
 3-21G
 ****


