%nproc=1
%NoSave
%Mem=1900MB
#P OB98/GEN NMR

erre ene a

0 1
  C      219.110     360.358     -46.883
  O      219.584     361.633     -47.255
  P      219.054     362.442     -48.523
  C      221.363     362.282     -49.740
  O      219.960     362.056     -49.788
  C      221.864     362.914     -51.047
  O      223.240     363.336     -50.858
  C      221.864     361.897     -52.200
  O      221.405     362.425     -53.439
  C      223.279     361.337     -52.162
  O      223.682     360.722     -53.377
  C      224.086     362.562     -51.736
  N      229.042     361.554     -52.221
  C      228.158     362.038     -53.165
  N      228.612     362.085     -54.435
  N      226.935     362.405     -52.884
  C      226.585     362.194     -51.592
  C      227.377     361.725     -50.570
  C      228.736     361.354     -50.886
  O      229.520     360.814     -50.104
  N      226.669     361.578     -49.408
  C      225.439     361.927     -49.730
  N      225.334     362.278     -51.058
  O      218.723     363.883     -48.307
  O      217.673     361.668     -48.850
  H      224.634     360.527     -53.308
  H      217.046     362.335     -49.192
  H      229.950     361.212     -52.514
  H      224.589     361.917     -49.060
  H      224.343     363.190     -52.590
  H      223.307     360.562     -51.388
  H      229.492     361.673     -54.701
  H      221.158     361.083     -51.997
  H      227.916     362.194     -55.170
  H      221.270     363.805     -51.270
  H      221.829     361.301     -49.592
  H      221.622     362.909     -48.882
  P      220.649     361.674     -54.630
  C      222.569     361.725     -56.330
  O      221.738     360.911     -55.525
  O      220.145     362.839     -55.601
  O      219.499     360.825     -54.200
  H      219.256     362.621     -55.938
  H      223.061     361.094     -57.079
  H      223.335     362.197     -55.710
  H      221.984     362.493     -56.841
  H      219.621     360.031     -46.002
  H      219.290     359.665     -47.678
  H      218.059     360.411     -46.687

 3  4  5  6  7  8  9  10  11  12  23  26  30  31 0
 6-311+G(2d,p)
 ****
 33  35  36  37  38 0
 6-311+G(2d,p)
 ****
 1  2  13  14  15  16  17  18  19  20  21  22  24  25 0
 3-21G
 ****
 27  28  29  32  34  39  40  41  42  43  44  45  46  47  48  49 0
 3-21G
 ****


