%nproc=1
%NoSave
%Mem=1900MB
#P OB98/GEN NMR

erre ene a

0 1
  C      600.055    -229.408    -121.259
  O      601.460    -229.376    -121.110
  H      599.739    -228.517    -121.808
  H      599.583    -229.395    -120.273
  H      599.733    -230.289    -121.817
  P      602.216    -230.697    -120.606
  C      603.658    -230.892    -122.743
  O      603.650    -230.701    -121.330
  C      604.807    -230.110    -123.389
  O      604.450    -228.694    -123.420
  C      606.147    -230.232    -122.645
  O      607.182    -230.130    -123.616
  C      606.116    -228.998    -121.766
  O      607.408    -228.682    -121.274
  C      605.486    -227.973    -122.718
  N      604.965    -226.799    -122.015
  C      605.783    -225.681    -121.969
  O      606.923    -225.663    -122.465
  N      605.289    -224.595    -121.308
  C      604.100    -224.538    -120.641
  O      603.727    -223.552    -120.031
  C      603.284    -225.769    -120.679
  C      603.746    -226.831    -121.361
  O      601.449    -231.972    -120.732
  O      602.597    -230.378    -119.084
  H      607.356    -227.936    -120.638
  H      602.616    -231.198    -118.566
  H      605.875    -223.778    -121.274
  H      602.338    -225.765    -120.150
  H      603.168    -227.750    -121.398
  H      606.217    -227.633    -123.451
  H      605.474    -229.156    -120.887
  H      606.238    -231.158    -122.077
  H      604.903    -230.435    -124.426
  H      602.695    -230.535    -123.131
  H      603.762    -231.957    -122.970
  P      608.712    -230.521    -123.289
  C      608.693    -232.398    -125.059
  O      609.355    -231.227    -124.578
  O      608.885    -231.300    -122.015
  O      609.483    -229.119    -123.205
  H      610.251    -229.204    -122.602
  H      609.212    -232.775    -125.915
  H      607.687    -232.153    -125.331
  H      608.684    -233.143    -124.291

 6  7  8  9  10  11  12  13  14  15  16  26  31  32  33  34  35 0
 6-311+G(2d,p)
 ****
 36  37 0
 6-311+G(2d,p)
 ****
 1  2  3  4  5  17  18  19  20  21  22  23  24  25 0
 3-21G
 ****
 27  28  29  30  38  39  40  41  42  43  44  45 0
 3-21G
 ****


