%nproc=1
%NoSave
%Mem=1900MB
#P OB98/GEN NMR

erre ene a

0 1
  C     -899.085    -661.602    -564.388
  O     -897.995    -662.385    -564.817
  P     -896.485    -661.920    -564.538
  C     -896.145    -663.708    -562.726
  O     -896.135    -662.318    -563.021
  C     -894.785    -664.183    -562.211
  O     -893.835    -664.187    -563.320
  C     -894.175    -663.320    -561.103
  O     -893.445    -664.206    -560.245
  C     -893.205    -662.426    -561.845
  O     -892.195    -661.875    -561.009
  C     -892.685    -663.397    -562.908
  N     -888.685    -663.290    -566.070
  C     -888.945    -664.045    -564.978
  N     -890.025    -663.991    -564.174
  C     -890.895    -663.056    -564.586
  C     -890.745    -662.184    -565.665
  C     -889.585    -662.335    -566.441
  N     -889.305    -661.594    -567.564
  N     -891.815    -661.322    -565.723
  C     -892.595    -661.665    -564.730
  N     -892.115    -662.736    -564.042
  O     -896.185    -660.509    -564.901
  O     -895.595    -662.941    -565.395
  H     -892.625    -661.368    -560.293
  H     -895.245    -662.490    -566.183
  H     -888.195    -664.790    -564.730
  H     -893.505    -661.157    -564.436
  H     -891.945    -664.097    -562.492
  H     -893.755    -661.595    -562.312
  H     -894.925    -662.757    -560.523
  H     -894.885    -665.221    -561.884
  H     -896.405    -664.241    -563.645
  H     -888.515    -661.886    -568.124
  H     -890.075    -661.077    -568.015
  H     -896.925    -663.911    -561.983
  P     -892.915    -663.688    -558.812
  C     -894.725    -664.559    -557.210
  O     -894.215    -663.426    -557.925
  O     -891.935    -662.564    -558.869
  O     -892.275    -665.004    -558.159
  H     -891.685    -664.744    -557.436
  H     -895.325    -665.177    -557.897
  H     -895.355    -664.213    -556.398
  H     -893.915    -665.168    -556.799
  H     -900.000    -662.081    -564.668
  H     -899.033    -660.636    -564.846
  H     -899.050    -661.494    -563.324

 3  4  5  6  7  8  9  10  11  12  22  25  29  30  31  32 0
 6-311+G(2d,p)
 ****
 33  36  37 0
 6-311+G(2d,p)
 ****
 1  2  13  14  15  16  17  18  19  20  21  23  24  26 0
 3-21G
 ****
 27  28  34  35  38  39  40  41  42  43  44  45  46  47  48 0
 3-21G
 ****


