%nproc=1
%NoSave
%Mem=1900MB
#P OB98/GEN NMR

erre ene a

0 1
  C      -17.274      66.494     -90.612
  O      -16.903      67.259     -89.482
  H      -17.536      67.175     -91.426
  H      -18.146      65.878     -90.374
  H      -16.443      65.859     -90.934
  P      -16.309      66.451     -88.228
  C      -17.457      65.004     -86.361
  O      -17.581      65.996     -87.364
  C      -18.746      64.898     -85.545
  O      -18.896      66.105     -84.755
  C      -20.004      64.741     -86.401
  O      -20.917      63.887     -85.709
  C      -20.573      66.150     -86.448
  O      -21.969      66.156     -86.731
  C      -20.185      66.676     -85.057
  N      -20.154      68.136     -85.004
  C      -21.389      68.791     -84.976
  O      -22.435      68.142     -85.011
  N      -21.414      70.161     -84.953
  C      -20.303      70.826     -85.018
  N      -20.396      72.183     -85.017
  C      -18.979      70.179     -85.093
  C      -18.978      68.847     -85.072
  O      -15.660      67.628     -87.359
  O      -15.361      65.358     -88.591
  H      -22.316      67.061     -86.574
  H      -16.229      68.411     -87.282
  H      -18.081      70.776     -85.157
  H      -18.050      68.289     -85.115
  H      -20.894      66.319     -84.300
  H      -20.070      66.732     -87.228
  H      -19.794      64.334     -87.392
  H      -18.644      64.067     -84.838
  H      -21.324      72.585     -84.987
  H      -16.623      65.242     -85.693
  H      -19.604      72.799     -85.120
  H      -17.238      64.051     -86.852
  P      -21.085      62.366     -86.179
  C      -22.004      61.062     -88.215
  O      -21.664      62.334     -87.673
  O      -21.768      61.461     -85.212
  O      -19.561      61.897     -86.396
  H      -19.478      60.987     -86.051
  H      -22.375      61.186     -89.211
  H      -22.758      60.606     -87.608
  H      -21.135      60.438     -88.233

 6  7  8  9  10  11  12  13  14  15  16  26  30  31  32  33  35 0
 6-311+G(2d,p)
 ****
 37  38 0
 6-311+G(2d,p)
 ****
 1  2  3  4  5  17  18  19  20  21  22  23  24  25 0
 3-21G
 ****
 27  28  29  34  36  39  40  41  42  43  44  45  46 0
 3-21G
 ****


