%nproc=1
%NoSave
%Mem=1900MB
#P OB98/GEN NMR

erre ene a

0 1
  C      -17.303     -78.544    -185.779
  O      -18.688     -78.494    -185.479
  P      -19.729     -78.619    -186.691
  C      -20.062     -76.045    -186.596
  O      -19.827     -77.186    -187.411
  C      -20.240     -74.792    -187.456
  O      -19.035     -74.563    -188.236
  C      -21.408     -74.884    -188.442
  O      -21.993     -73.582    -188.607
  C      -20.739     -75.249    -189.751
  O      -21.537     -74.868    -190.872
  C      -19.423     -74.481    -189.623
  N      -18.444     -76.752    -194.033
  C      -19.590     -76.103    -193.614
  N      -20.645     -76.144    -194.458
  N      -19.691     -75.468    -192.477
  C      -18.557     -75.517    -191.735
  C      -17.357     -76.114    -192.047
  C      -17.264     -76.824    -193.304
  O      -16.288     -77.443    -193.721
  N      -16.426     -75.921    -191.058
  C      -17.072     -75.247    -190.126
  N      -18.378     -75.009    -190.474
  O      -21.137     -78.760    -185.940
  O      -19.491     -79.777    -187.601
  H      -20.960     -74.913    -191.659
  H      -21.448     -79.685    -185.989
  H      -18.422     -77.237    -194.915
  H      -16.654     -74.931    -189.179
  H      -19.551     -73.419    -189.866
  H      -20.570     -76.330    -189.802
  H      -20.653     -76.672    -195.317
  H      -22.187     -75.599    -188.156
  H      -21.511     -75.714    -194.155
  H      -20.360     -73.927    -186.791
  H      -19.211     -75.902    -185.929
  H      -20.954     -76.210    -185.983
  P      -23.565     -73.473    -188.289
  C      -24.409     -73.868    -190.721
  O      -24.298     -74.363    -189.403
  O      -23.921     -71.971    -188.710
  O      -23.926     -73.773    -186.873
  H      -24.701     -71.658    -188.212
  H      -23.854     -74.528    -191.396
  H      -24.017     -72.852    -190.817
  H      -25.462     -73.868    -191.013
  H      -16.739     -78.448    -184.875
  H      -17.053     -77.743    -186.442
  H      -17.073     -79.479    -186.246

 3  4  5  6  7  8  9  10  11  12  23  26  30  31 0
 6-311+G(2d,p)
 ****
 33  35  36  37  38 0
 6-311+G(2d,p)
 ****
 1  2  13  14  15  16  17  18  19  20  21  22  24  25 0
 3-21G
 ****
 27  28  29  32  34  39  40  41  42  43  44  45  46  47  48  49 0
 3-21G
 ****


