%nproc=1
%NoSave
%Mem=1900MB
#P OB98/GEN NMR

erre ene a

0 1
  C     -209.529     -93.672     -68.298
  O     -208.154     -93.772     -68.604
  H     -210.075     -94.400     -68.905
  H     -209.906     -92.672     -68.529
  H     -209.700     -93.902     -67.243
  P     -207.144     -92.724     -67.925
  C     -207.019     -91.186     -70.010
  O     -207.463     -91.333     -68.669
  C     -206.502     -89.768     -70.243
  O     -207.588     -88.816     -70.260
  C     -205.547     -89.249     -69.169
  O     -204.252     -89.819     -69.242
  C     -205.552     -87.766     -69.510
  O     -204.740     -87.538     -70.674
  C     -207.050     -87.534     -69.827
  N     -207.804     -87.027     -68.682
  C     -207.482     -85.735     -68.242
  O     -206.606     -85.083     -68.808
  N     -208.136     -85.227     -67.144
  C     -209.019     -85.950     -66.528
  N     -209.603     -85.417     -65.418
  C     -209.401     -87.306     -66.966
  C     -208.760     -87.780     -68.033
  O     -205.702     -93.117     -67.898
  O     -207.760     -92.461     -66.471
  H     -203.874     -87.949     -70.502
  H     -207.165     -91.825     -66.006
  H     -210.138     -87.869     -66.411
  H     -208.973     -88.776     -68.405
  H     -207.168     -86.838     -70.664
  H     -205.156     -87.137     -68.705
  H     -205.978     -89.379     -68.170
  H     -206.039     -89.744     -71.239
  H     -209.286     -84.503     -65.123
  H     -207.858     -91.412     -70.673
  H     -210.077     -86.002     -64.737
  H     -206.205     -91.888     -70.216
  P     -203.488     -90.125     -67.861
  C     -202.277     -87.830     -68.076
  O     -203.035     -88.708     -67.261
  O     -202.116     -90.786     -68.353
  O     -204.227     -90.993     -66.891
  H     -202.180     -91.761     -68.367
  H     -202.059     -86.936     -67.530
  H     -202.838     -87.584     -68.953
  H     -201.362     -88.307     -68.360

 6  7  8  9  10  11  12  13  14  15  16  26  30  31  32  33  35 0
 6-311+G(2d,p)
 ****
 37  38 0
 6-311+G(2d,p)
 ****
 1  2  3  4  5  17  18  19  20  21  22  23  24  25 0
 3-21G
 ****
 27  28  29  34  36  39  40  41  42  43  44  45  46 0
 3-21G
 ****


