%nproc=1
%NoSave
%Mem=1900MB
#P OB98/GEN NMR

erre ene a

0 1
  C       22.451     -42.155     -91.812
  O       23.550     -43.001     -91.520
  P       24.812     -42.351     -90.770
  C       26.376     -40.341     -91.300
  O       25.463     -41.308     -91.801
  C       27.549     -40.176     -92.263
  O       28.397     -41.343     -92.242
  C       27.140     -40.004     -93.720
  O       26.752     -38.673     -94.019
  C       28.438     -40.352     -94.430
  O       29.330     -39.221     -94.406
  C       28.989     -41.486     -93.556
  N       30.819     -45.421     -96.155
  C       31.478     -44.326     -95.630
  N       32.801     -44.241     -95.886
  N       30.894     -43.401     -94.916
  C       29.565     -43.613     -94.748
  C       28.803     -44.660     -95.217
  C       29.461     -45.671     -96.015
  O       28.923     -46.634     -96.551
  N       27.494     -44.535     -94.835
  C       27.459     -43.419     -94.135
  N       28.682     -42.800     -94.091
  O       25.877     -43.545     -90.735
  O       24.520     -41.817     -89.408
  H       28.886     -38.506     -94.905
  H       26.568     -43.356     -90.073
  H       31.315     -46.105     -96.704
  H       26.575     -43.013     -93.661
  H       30.074     -41.416     -93.433
  H       28.290     -40.618     -95.481
  H       33.297     -44.888     -96.482
  H       26.365     -40.727     -94.004
  H       33.296     -43.417     -95.567
  H       28.145     -39.318     -91.927
  H       26.746     -40.666     -90.325
  H       25.856     -39.387     -91.170
  P       25.338     -38.481     -94.755
  C       24.531     -38.923     -97.184
  O       25.626     -38.748     -96.307
  O       25.101     -36.901     -94.672
  O       24.216     -39.256     -94.148
  H       24.147     -36.698     -94.697
  H       24.887     -38.825     -98.214
  H       23.762     -38.166     -97.008
  H       24.105     -39.921     -97.052
  H       21.689     -42.719     -92.309
  H       22.774     -41.356     -92.446
  H       22.060     -41.751     -90.902

 3  4  5  6  7  8  9  10  11  12  23  26  30  31 0
 6-311+G(2d,p)
 ****
 33  35  36  37  38 0
 6-311+G(2d,p)
 ****
 1  2  13  14  15  16  17  18  19  20  21  22  24  25 0
 3-21G
 ****
 27  28  29  32  34  39  40  41  42  43  44  45  46  47  48  49 0
 3-21G
 ****


