%nproc=1
%NoSave
%Mem=1900MB
#P OB98/GEN NMR

erre ene a

0 1
  C       88.534     102.552      74.001
  O       87.963     101.432      74.685
  P       87.127     101.681      76.030
  C       84.830     102.636      75.352
  O       85.564     101.479      75.721
  C       83.607     102.264      74.495
  O       84.044     101.769      73.203
  C       82.729     101.180      75.146
  O       81.346     101.536      75.199
  C       83.062      99.928      74.348
  O       82.035      98.948      74.395
  C       83.418     100.490      72.966
  N       84.279      99.582      72.204
  C       83.740      99.044      71.038
  O       82.582      99.234      70.678
  N       84.570      98.214      70.330
  C       85.821      97.823      70.696
  O       86.503      97.040      70.046
  C       86.314      98.372      71.971
  C       85.529      99.215      72.654
  O       87.471     102.923      76.788
  O       87.473     100.376      76.909
  H       81.890      98.701      75.333
  H       87.567     100.655      77.842
  H       84.203      97.830      69.472
  H       87.292      98.067      72.309
  H       85.863      99.626      73.599
  H       82.517     100.660      72.366
  H       83.962      99.471      74.779
  H       82.999     101.021      76.197
  H       83.028     103.181      74.338
  H       85.469     103.308      74.776
  H       84.544     103.190      76.254
  P       80.380     101.233      76.437
  C       81.130     103.493      77.463
  O       80.056     102.619      77.172
  O       80.812     100.124      77.345
  O       78.987     100.858      75.729
  H       78.572     100.110      76.209
  H       80.821     104.177      78.258
  H       81.372     104.083      76.571
  H       82.025     102.947      77.790
  H       89.054     102.211      73.130
  H       89.219     103.056      74.651
  H       87.756     103.227      73.710

 3  4  5  6  7  8  9  10  11  12  13  23  28  29  30  31  32 0
 6-311+G(2d,p)
 ****
 33  34 0
 6-311+G(2d,p)
 ****
 1  2  14  15  16  17  18  19  20  21  22  24  25  26  27 0
 3-21G
 ****
 35  36  37  38  39  40  41  42  43  44  45 0
 3-21G
 ****


