%nproc=1
%NoSave
%Mem=1900MB
#P OB98/GEN NMR

erre ene a

0 1
  C      152.294     373.027    -452.632
  O      152.976     373.186    -451.399
  H      151.738     372.085    -452.628
  H      151.589     373.856    -452.751
  H      153.000     373.042    -453.466
  P      154.184     372.173    -451.106
  C      153.078     370.638    -449.314
  O      153.994     371.696    -449.581
  C      152.202     370.986    -448.111
  O      153.055     371.159    -446.943
  C      151.395     372.276    -448.290
  O      150.101     372.095    -447.701
  C      152.181     373.304    -447.502
  O      151.372     374.383    -447.060
  C      152.745     372.444    -446.367
  N      154.502     376.323    -443.543
  C      153.249     375.939    -443.874
  N      152.867     374.887    -444.622
  C      153.942     374.167    -445.016
  C      155.274     374.438    -444.762
  C      155.550     375.582    -443.994
  N      156.820     376.004    -443.687
  N      156.080     373.486    -445.363
  C      155.246     372.667    -445.970
  N      153.942     373.037    -445.786
  O      155.447     373.158    -451.039
  O      154.375     371.083    -452.105
  H      150.645     374.023    -446.504
  H      155.736     373.378    -451.946
  H      152.446     376.567    -443.484
  H      155.533     371.796    -446.551
  H      152.030     372.299    -445.553
  H      152.983     373.711    -448.121
  H      151.282     372.560    -449.339
  H      151.548     370.127    -447.900
  H      153.646     369.727    -449.110
  H      156.928     376.872    -443.183
  H      157.605     375.501    -444.064
  H      152.450     370.478    -450.198
  P      149.011     371.296    -448.583
  C      147.734     373.233    -449.742
  O      147.710     372.222    -448.742
  O      148.528     370.126    -447.603
  O      149.567     370.746    -449.855
  H      148.561     369.268    -448.061
  H      146.807     373.767    -449.732
  H      147.876     372.782    -450.702
  H      148.538     373.911    -449.544

 6  7  8  9  10  11  12  13  14  15  25  28  32  33  34  35 0
 6-311+G(2d,p)
 ****
 36  39  40 0
 6-311+G(2d,p)
 ****
 1  2  3  4  5  16  17  18  19  20  21  22  23  24 0
 3-21G
 ****
 26  27  29  30  31  37  38  41  42  43  44  45  46  47 0
 3-21G
 ****
 48 0
 3-21G
 ****


