%nproc=1
%NoSave
%Mem=1900MB
#P OB98/GEN NMR

erre ene a

0 1
  C     -219.972     232.355     129.943
  O     -219.819     233.408     130.872
  H     -220.822     231.739     130.252
  H     -219.077     231.729     129.927
  H     -220.171     232.746     128.941
  P     -218.724     234.542     130.583
  C     -216.791     233.235     131.678
  O     -217.602     234.404     131.721
  C     -215.608     233.388     132.631
  O     -214.880     232.142     132.730
  C     -214.589     234.432     132.187
  O     -215.070     235.741     132.428
  C     -213.385     234.018     133.021
  O     -213.506     234.491     134.372
  C     -213.493     232.474     132.975
  N     -212.621     231.873     131.962
  C     -211.268     231.815     132.277
  O     -210.801     232.236     133.333
  N     -210.454     231.289     131.307
  C     -210.845     230.915     130.051
  O     -210.054     230.660     129.146
  C     -212.295     230.932     129.804
  C     -213.102     231.416     130.751
  O     -219.255     235.922     130.384
  O     -217.970     234.009     129.271
  H     -218.307     234.487     128.490
  H     -214.308     234.068     134.742
  H     -209.462     231.284     131.504
  H     -212.651     230.581     128.843
  H     -214.173     231.465     130.579
  H     -213.231     232.042     133.951
  H     -212.449     234.415     132.625
  H     -214.348     234.295     131.126
  H     -216.002     233.629     133.628
  H     -216.419     233.107     130.654
  H     -217.399     232.365     131.948
  P     -214.905     236.897     131.334
  C     -212.625     236.545     130.219
  O     -213.347     237.254     131.217
  O     -215.798     238.079     131.528
  O     -215.216     236.171     129.940
  H     -215.908     236.672     129.466
  H     -211.602     236.859     130.228
  H     -213.052     236.747     129.259
  H     -212.678     235.495     130.419

 6  7  8  9  10  11  12  13  14  15  16  27  31  32  33  34  35 0
 6-311+G(2d,p)
 ****
 36  37 0
 6-311+G(2d,p)
 ****
 1  2  3  4  5  17  18  19  20  21  22  23  24  25 0
 3-21G
 ****
 26  28  29  30  38  39  40  41  42  43  44  45 0
 3-21G
 ****


