%nproc=1
%NoSave
%Mem=1900MB
#P OB98/GEN NMR

erre ene a

0 1
  C     -103.544    -208.028    -309.939
  O     -104.378    -207.422    -308.972
  H     -103.796    -207.617    -310.921
  H     -103.720    -209.106    -309.960
  H     -102.493    -207.821    -309.732
  P     -104.125    -207.742    -307.423
  C     -106.227    -206.361    -306.843
  O     -104.852    -206.588    -306.573
  C     -106.545    -204.862    -306.826
  O     -106.343    -204.358    -305.482
  C     -105.667    -204.039    -307.772
  O     -106.452    -202.994    -308.349
  C     -104.617    -203.447    -306.852
  O     -104.074    -202.229    -307.361
  C     -105.402    -203.268    -305.555
  N     -104.544    -201.128    -301.059
  C     -105.581    -200.944    -301.946
  N     -106.524    -200.041    -301.598
  N     -105.688    -201.584    -303.082
  C     -104.684    -202.474    -303.292
  C     -103.601    -202.747    -302.487
  C     -103.486    -202.015    -301.245
  O     -102.582    -202.125    -300.424
  N     -102.792    -203.700    -303.053
  C     -103.381    -204.000    -304.195
  N     -104.526    -203.272    -304.392
  O     -102.694    -207.977    -307.053
  O     -105.026    -209.030    -307.130
  H     -103.529    -201.838    -306.644
  H     -104.476    -209.832    -307.058
  H     -104.504    -200.601    -300.202
  H     -103.025    -204.725    -304.912
  H     -105.963    -202.323    -305.530
  H     -103.794    -204.161    -306.722
  H     -106.518    -199.530    -300.729
  H     -105.226    -204.647    -308.563
  H     -107.316    -199.910    -302.221
  H     -107.607    -204.731    -307.061
  H     -106.817    -206.872    -306.071
  H     -106.480    -206.791    -307.820
  P     -107.154    -203.240    -309.769
  C     -106.776    -200.766    -310.344
  O     -107.705    -201.839    -310.328
  O     -108.138    -204.367    -309.813
  O     -105.906    -203.536    -310.737
  H     -106.176    -204.195    -311.409
  H     -107.250    -199.889    -310.733
  H     -105.942    -201.025    -310.963
  H     -106.435    -200.575    -309.348

 6  7  8  9  10  11  12  13  14  15  26  29  33  34 0
 6-311+G(2d,p)
 ****
 36  38  39  40  41 0
 6-311+G(2d,p)
 ****
 1  2  3  4  5  16  17  18  19  20  21  22  23  24  25 0
 3-21G
 ****
 27  28  30  31  32  35  37  42  43  44  45  46  47 0
 3-21G
 ****
 48  49 0
 3-21G
 ****


