%nproc=1
%NoSave
%Mem=1900MB
#P OB98/GEN NMR

erre ene a

0 1
  C      245.451     309.626     130.549
  O      246.373     308.695     130.018
  H      245.766     309.889     131.561
  H      244.449     309.188     130.595
  H      245.432     310.535     129.941
  P      246.113     308.115     128.548
  C      246.252     310.421     127.389
  O      245.432     309.305     127.711
  C      245.396     311.570     126.864
  O      246.213     312.733     126.626
  C      244.686     311.267     125.543
  O      243.501     310.523     125.775
  C      244.399     312.679     125.053
  O      243.282     313.224     125.779
  C      245.693     313.417     125.449
  N      247.620     315.917     121.476
  C      246.461     316.151     122.192
  N      245.689     317.175     121.767
  N      246.082     315.436     123.219
  C      246.916     314.402     123.483
  C      248.081     314.057     122.837
  C      248.520     314.902     121.743
  O      249.554     314.743     121.097
  N      248.605     312.891     123.329
  C      247.784     312.557     124.307
  N      246.736     313.437     124.437
  O      245.369     306.816     128.475
  O      247.574     308.008     127.901
  H      243.270     314.183     125.610
  H      247.961     307.123     128.049
  H      247.851     316.499     120.688
  H      247.902     311.693     124.954
  H      245.503     314.458     125.728
  H      244.146     312.715     123.995
  H      245.848     317.665     120.897
  H      245.353     310.772     124.831
  H      244.804     317.323     122.244
  H      244.676     311.838     127.645
  H      246.967     310.095     126.630
  H      246.810     310.753     128.273
  P      242.619     309.951     124.560
  C      243.845     307.687     124.795
  O      243.475     308.751     123.938
  O      242.174     310.980     123.574
  O      241.422     309.171     125.275
  H      240.665     309.760     125.517
  H      244.409     306.964     124.243
  H      242.965     307.225     125.191
  H      244.441     308.067     125.599

 6  7  8  9  10  11  12  13  14  15  26  29  33  34 0
 6-311+G(2d,p)
 ****
 36  38  39  40  41 0
 6-311+G(2d,p)
 ****
 1  2  3  4  5  16  17  18  19  20  21  22  23  24  25 0
 3-21G
 ****
 27  28  30  31  32  35  37  42  43  44  45  46  47 0
 3-21G
 ****
 48  49 0
 3-21G
 ****


