%nproc=1
%NoSave
%Mem=1900MB
#P OB98/GEN NMR

erre ene a

0 1
  C     -515.124    -434.960    -417.665
  O     -515.324    -436.249    -418.207
  H     -514.253    -434.509    -418.146
  H     -514.935    -435.033    -416.593
  H     -515.997    -434.328    -417.848
  P     -516.615    -437.057    -417.700
  C     -517.906    -436.924    -419.944
  O     -517.852    -436.532    -418.581
  C     -519.127    -436.320    -420.633
  O     -519.382    -434.997    -420.072
  C     -518.979    -436.154    -422.155
  O     -520.259    -436.383    -422.754
  C     -518.645    -434.675    -422.302
  O     -518.937    -434.177    -423.604
  C     -519.513    -434.094    -421.186
  N     -521.256    -429.456    -420.295
  C     -521.928    -430.627    -420.584
  N     -523.276    -430.557    -420.641
  N     -521.335    -431.772    -420.793
  C     -519.987    -431.707    -420.669
  C     -519.200    -430.611    -420.393
  C     -519.873    -429.344    -420.190
  O     -519.329    -428.271    -419.951
  N     -517.871    -430.948    -420.381
  C     -517.855    -432.242    -420.645
  N     -519.111    -432.746    -420.828
  O     -516.882    -436.418    -416.256
  O     -516.460    -438.539    -417.636
  H     -518.444    -434.723    -424.251
  H     -516.444    -436.949    -415.566
  H     -521.762    -428.600    -420.155
  H     -516.964    -432.856    -420.722
  H     -520.574    -434.044    -421.465
  H     -517.579    -434.508    -422.098
  H     -523.804    -429.721    -420.445
  H     -518.232    -436.810    -422.612
  H     -523.790    -431.415    -420.810
  H     -520.003    -436.938    -420.394
  H     -517.967    -438.016    -419.999
  H     -516.992    -436.593    -420.450
  P     -520.596    -437.864    -423.261
  C     -522.548    -438.132    -421.566
  O     -521.326    -438.646    -422.067
  O     -519.154    -438.561    -423.311
  O     -521.281    -437.918    -424.590
  H     -519.150    -439.268    -423.981
  H     -522.904    -438.763    -420.779
  H     -523.272    -438.101    -422.354
  H     -522.391    -437.144    -421.188

 6  7  8  9  10  11  12  13  14  15  26  29  33  34 0
 6-311+G(2d,p)
 ****
 36  38  39  40  41 0
 6-311+G(2d,p)
 ****
 1  2  3  4  5  16  17  18  19  20  21  22  23  24  25 0
 3-21G
 ****
 27  28  30  31  32  35  37  42  43  44  45  46  47 0
 3-21G
 ****
 48  49 0
 3-21G
 ****


