%nproc=1
%NoSave
%Mem=1900MB
#P OB98/GEN NMR

erre ene a

0 1
  C        8.208      43.992       1.380
  O        9.136      42.927       1.380
  H        7.829      44.127       0.363
  H        8.701      44.914       1.696
  H        7.366      43.772       2.043
  P        9.659      42.428       2.813
  C       10.843      43.583       4.813
  O       10.511      43.638       3.434
  C       12.071      44.445       5.095
  O       13.263      43.800       4.594
  C       12.030      45.825       4.447
  O       11.276      46.749       5.221
  C       13.507      46.180       4.453
  O       13.904      46.587       5.779
  C       14.155      44.836       4.095
  N       17.153      45.892       0.146
  C       17.253      46.286       1.467
  N       18.295      47.085       1.779
  N       16.405      45.936       2.399
  C       15.405      45.145       1.939
  C       15.201      44.686       0.657
  C       16.150      45.074      -0.360
  O       16.122      44.734      -1.539
  N       14.084      43.897       0.580
  C       13.601      43.893       1.807
  N       14.363      44.643       2.669
  O       10.779      41.342       2.442
  O        8.617      41.848       3.709
  H       13.681      47.532       5.861
  H       10.752      40.625       3.104
  H       17.827      46.200      -0.533
  H       12.712      43.368       2.121
  H       15.126      44.698       4.583
  H       13.745      47.005       3.781
  H       18.956      47.432       1.101
  H       11.671      45.774       3.413
  H       18.408      47.360       2.747
  H       12.179      44.532       6.184
  H       11.058      42.546       5.090
  H        9.990      43.940       5.399
  P       10.281      47.738       4.436
  C       10.703      49.486       2.562
  O       11.227      48.800       3.694
  O        9.620      48.593       5.616
  O        9.258      47.062       3.589
  H        8.762      48.957       5.324
  H       11.443      50.156       2.177
  H        9.836      50.042       2.852
  H       10.436      48.776       1.807

 6  7  8  9  10  11  12  13  14  15  26  29  33  34 0
 6-311+G(2d,p)
 ****
 36  38  39  40  41 0
 6-311+G(2d,p)
 ****
 1  2  3  4  5  16  17  18  19  20  21  22  23  24  25 0
 3-21G
 ****
 27  28  30  31  32  35  37  42  43  44  45  46  47 0
 3-21G
 ****
 48  49 0
 3-21G
 ****


