%nproc=1
%NoSave
%Mem=1900MB
#P OB98/GEN NMR

erre ene a

0 1
  C       96.210     -43.780    -443.517
  O       96.316     -42.518    -444.139
  H       95.423     -44.352    -444.012
  H       95.940     -43.645    -442.468
  H       97.151     -44.335    -443.590
  P       97.646     -41.668    -443.857
  C       99.185     -42.697    -445.676
  O       98.435     -41.569    -445.253
  C       99.940     -42.384    -446.970
  O      100.954     -43.414    -447.176
  C       99.047     -42.347    -448.222
  O       99.529     -41.322    -449.101
  C       99.321     -43.691    -448.872
  O       99.043     -43.688    -450.266
  C      100.800     -43.872    -448.532
  N      104.012     -46.828    -451.012
  C      103.953     -45.452    -450.912
  N      104.852     -44.743    -451.627
  N      103.081     -44.820    -450.168
  C      102.252     -45.646    -449.485
  C      102.206     -47.021    -449.507
  C      103.165     -47.708    -450.343
  O      103.255     -48.924    -450.489
  N      101.180     -47.487    -448.724
  C      100.595     -46.396    -448.252
  N      101.211     -45.255    -448.691
  O       98.534     -42.685    -442.993
  O       97.440     -40.372    -443.145
  H       99.613     -43.011    -450.688
  H       98.402     -42.514    -442.043
  H      104.691     -47.265    -451.607
  H       99.721     -46.378    -447.617
  H      101.454     -43.268    -449.177
  H       98.710     -44.468    -448.396
  H      105.572     -45.160    -452.197
  H       97.988     -42.182    -448.008
  H      104.843     -43.736    -451.533
  H      100.472     -41.433    -446.842
  H       98.504     -43.535    -445.853
  H       99.888     -42.980    -444.884
  P       98.860     -39.863    -448.999
  C      100.261     -38.527    -447.265
  O      100.000     -38.799    -448.634
  O       97.997     -39.960    -447.655
  O       98.003     -39.510    -450.169
  H       97.185     -39.431    -447.742
  H      101.043     -37.801    -447.188
  H      100.562     -39.428    -446.773
  H       99.375     -38.147    -446.802

 6  7  8  9  10  11  12  13  14  15  26  29  33  34 0
 6-311+G(2d,p)
 ****
 36  38  39  40  41 0
 6-311+G(2d,p)
 ****
 1  2  3  4  5  16  17  18  19  20  21  22  23  24  25 0
 3-21G
 ****
 27  28  30  31  32  35  37  42  43  44  45  46  47 0
 3-21G
 ****
 48  49 0
 3-21G
 ****


