%nproc=1
%NoSave
%Mem=1900MB
#P OB98/GEN NMR

erre ene a

0 1
  C     -319.634     161.367      78.200
  O     -320.864     161.094      77.530
  P     -322.222     161.451      78.300
  C     -323.737     159.309      78.278
  O     -322.784     160.100      78.963
  C     -324.936     158.976      79.192
  O     -324.422     158.539      80.476
  C     -325.867     160.144      79.497
  O     -327.111     159.626      79.970
  C     -325.141     160.827      80.637
  O     -326.001     161.699      81.364
  C     -324.568     159.630      81.431
  N     -323.269     159.913      82.077
  C     -323.245     160.768      83.178
  O     -324.250     161.305      83.647
  N     -322.016     161.031      83.713
  C     -320.832     160.498      83.298
  O     -319.747     160.836      83.758
  C     -320.924     159.500      82.228
  C     -322.114     159.265      81.666
  O     -323.253     161.767      77.117
  O     -322.094     162.595      79.252
  H     -326.753     161.148      81.676
  H     -323.405     162.729      77.051
  H     -321.981     161.696      84.470
  H     -320.011     159.006      81.913
  H     -322.197     158.541      80.858
  H     -325.264     159.312      82.217
  H     -324.322     161.438      80.239
  H     -326.039     160.821      78.657
  H     -325.493     158.137      78.757
  H     -323.270     158.388      77.917
  H     -324.097     159.845      77.391
  P     -328.327     159.526      78.926
  C     -328.692     162.065      78.749
  O     -328.305     160.884      78.073
  O     -329.654     159.143      79.497
  O     -327.803     158.440      77.872
  H     -328.558     158.074      77.370
  H     -328.171     162.917      78.299
  H     -328.445     162.017      79.815
  H     -329.774     162.207      78.633
  H     -318.815     161.081      77.573
  H     -319.595     160.812      79.114
  H     -319.570     162.413      78.415

 3  4  5  6  7  8  9  10  11  12  13  23  28  29  30  31  32 0
 6-311+G(2d,p)
 ****
 33  34 0
 6-311+G(2d,p)
 ****
 1  2  14  15  16  17  18  19  20  21  22  24  25  26  27 0
 3-21G
 ****
 35  36  37  38  39  40  41  42  43  44  45 0
 3-21G
 ****


