%nproc=1
%NoSave
%Mem=1900MB
#P OB98/GEN NMR

erre ene a

0 1
  C      -31.312      25.901     582.932
  O      -31.975      26.583     581.888
  P      -32.173      28.168     581.863
  C      -29.835      28.736     580.877
  O      -30.723      28.856     581.986
  C      -28.939      29.969     580.688
  O      -29.750      31.090     580.280
  C      -28.297      30.361     582.023
  O      -27.115      29.713     582.465
  C      -28.220      31.884     581.991
  O      -26.929      32.363     581.605
  C      -29.270      32.271     580.947
  N      -30.818      36.100     583.885
  C      -29.567      35.872     583.344
  N      -28.570      36.660     583.803
  N      -29.321      34.942     582.457
  C      -30.397      34.171     582.170
  C      -31.692      34.313     582.629
  C      -31.954      35.367     583.578
  O      -33.031      35.553     584.144
  N      -32.504      33.305     582.183
  C      -31.701      32.530     581.484
  N      -30.406      32.992     581.479
  O      -33.300      28.721     582.677
  O      -32.535      28.414     580.309
  H      -27.000      33.319     581.445
  H      -33.170      29.159     580.271
  H      -30.931      36.785     584.621
  H      -31.997      31.610     580.990
  H      -28.827      32.907     580.170
  H      -28.422      32.303     582.989
  H      -28.690      37.283     584.590
  H      -29.029      30.137     582.805
  H      -27.619      36.408     583.561
  H      -28.218      29.814     579.883
  H      -30.445      28.558     579.985
  H      -29.205      27.853     581.016
  P      -26.492      29.778     583.935
  C      -27.937      28.201     585.340
  O      -27.671      29.548     584.992
  O      -26.123      31.323     584.143
  O      -25.284      28.923     584.142
  H      -25.440      31.407     584.831
  H      -28.920      28.142     585.809
  H      -27.180      27.851     586.055
  H      -27.920      27.557     584.454
  H      -31.306      24.851     582.725
  H      -31.823      26.079     583.855
  H      -30.305      26.256     583.007

 3  4  5  6  7  8  9  10  11  12  23  26  30  31 0
 6-311+G(2d,p)
 ****
 33  35  36  37  38 0
 6-311+G(2d,p)
 ****
 1  2  13  14  15  16  17  18  19  20  21  22  24  25 0
 3-21G
 ****
 27  28  29  32  34  39  40  41  42  43  44  45  46  47  48  49 0
 3-21G
 ****


