%nproc=1
%NoSave
%Mem=1900MB
#P OB98/GEN NMR

erre ene a

0 1
  C        4.087     -51.827     -94.545
  O        3.056     -50.943     -94.940
  H        5.050     -51.311     -94.554
  H        3.882     -52.173     -93.529
  H        4.120     -52.692     -95.212
  P        3.157     -50.342     -96.424
  C        4.760     -48.489     -95.572
  O        4.550     -49.550     -96.491
  C        5.616     -47.401     -96.211
  O        5.615     -46.219     -95.386
  C        7.084     -47.771     -96.397
  O        7.283     -48.583     -97.543
  C        7.703     -46.393     -96.575
  O        7.483     -45.932     -97.921
  C        6.887     -45.546     -95.588
  N        8.425     -42.145     -92.090
  C        7.734     -42.005     -93.241
  N        7.344     -42.960     -94.110
  C        7.722     -44.174     -93.678
  C        8.410     -44.479     -92.517
  C        8.775     -43.396     -91.699
  N        9.542     -43.547     -90.556
  N        8.633     -45.839     -92.422
  C        8.104     -46.341     -93.518
  N        7.536     -45.376     -94.304
  O        2.055     -49.178     -96.411
  O        2.915     -51.321     -97.523
  H        6.521     -45.963     -98.074
  H        1.229     -49.515     -96.804
  H        7.462     -40.987     -93.504
  H        8.112     -47.389     -93.784
  H        6.664     -44.549     -95.984
  H        8.783     -46.381     -96.401
  H        7.499     -48.236     -95.495
  H        5.159     -47.134     -97.173
  H        5.270     -48.874     -94.682
  H       10.110     -42.733     -90.339
  H        9.988     -44.452     -90.468
  H        3.788     -48.084     -95.277
  P        8.453     -49.679     -97.488
  C       10.247     -47.949     -98.181
  O        9.814     -48.879     -97.197
  O        8.594     -50.126     -99.018
  O        8.188     -50.849     -96.606
  H        8.480     -51.093     -99.091
  H       11.160     -47.491     -97.861
  H        9.498     -47.197     -98.315
  H       10.409     -48.459     -99.107

 6  7  8  9  10  11  12  13  14  15  25  28  32  33  34  35 0
 6-311+G(2d,p)
 ****
 36  39  40 0
 6-311+G(2d,p)
 ****
 1  2  3  4  5  16  17  18  19  20  21  22  23  24 0
 3-21G
 ****
 26  27  29  30  31  37  38  41  42  43  44  45  46  47  48 0
 3-21G
 ****


