%nproc=1
%NoSave
%Mem=1900MB
#P OB98/GEN NMR

erre ene a

0 1
  C      685.304     664.493      52.300
  O      684.038     664.859      52.809
  H      686.034     664.555      53.114
  H      685.600     665.182      51.513
  H      685.295     663.470      51.919
  P      682.734     664.577      51.921
  C      681.527     663.367      53.849
  O      682.040     663.267      52.529
  C      680.275     662.504      54.021
  O      679.189     663.090      53.244
  C      680.450     661.058      53.549
  O      679.596     660.234      54.346
  C      679.917     661.127      52.129
  O      679.601     659.848      51.620
  C      678.732     662.083      52.316
  N      678.277     662.667      51.052
  C      677.115     662.132      50.503
  O      676.501     661.186      51.018
  N      676.703     662.673      49.318
  C      677.354     663.644      48.612
  O      676.948     664.072      47.540
  C      678.601     664.148      49.224
  C      678.992     663.641      50.396
  O      682.959     664.537      50.441
  O      681.714     665.741      52.329
  H      680.371     659.241      51.718
  H      681.133     665.961      51.581
  H      675.853     662.297      48.912
  H      679.149     664.904      48.683
  H      679.905     663.990      50.867
  H      677.882     661.564      52.773
  H      680.664     661.564      51.456
  H      681.477     660.706      53.589
  H      679.963     662.540      55.074
  H      681.283     664.421      54.039
  H      682.294     663.049      54.567
  P      680.138     659.434      55.634
  C      678.313     660.231      57.271
  O      679.706     660.225      56.955
  O      681.594     659.087      55.569
  O      679.242     658.105      55.698
  H      679.750     657.382      56.117
  H      678.154     660.789      58.170
  H      677.974     659.226      57.410
  H      677.767     660.683      56.469

 6  7  8  9  10  11  12  13  14  15  16  26  31  32  33  34  35 0
 6-311+G(2d,p)
 ****
 36  37 0
 6-311+G(2d,p)
 ****
 1  2  3  4  5  17  18  19  20  21  22  23  24  25 0
 3-21G
 ****
 27  28  29  30  38  39  40  41  42  43  44  45 0
 3-21G
 ****


