%nproc=1
%NoSave
%Mem=1900MB
#P OB98/GEN NMR

erre ene a

0 1
  C      349.599     279.280     317.834
  O      349.497     280.379     318.712
  H      349.863     278.390     318.413
  H      350.389     279.464     317.101
  H      348.656     279.090     317.320
  P      348.843     281.738     318.177
  C      350.240     283.430     319.537
  O      348.975     282.806     319.370
  C      350.155     284.586     320.536
  O      349.109     285.507     320.105
  C      349.816     284.146     321.967
  O      350.447     285.072     322.865
  C      348.312     284.326     321.996
  O      347.817     284.365     323.320
  C      348.161     285.613     321.182
  N      346.796     285.813     320.696
  C      346.151     286.975     321.109
  O      346.663     287.800     321.869
  N      344.878     287.148     320.655
  C      344.169     286.259     319.899
  O      343.014     286.451     319.546
  C      344.884     285.024     319.530
  C      346.147     284.863     319.938
  O      347.473     281.618     317.598
  O      349.894     282.287     317.099
  H      348.086     285.199     323.759
  H      349.434     282.797     316.408
  H      344.399     287.994     320.934
  H      344.351     284.292     318.942
  H      346.701     283.965     319.684
  H      348.434     286.492     321.787
  H      347.816     283.496     321.487
  H      350.131     283.124     322.189
  H      351.100     285.145     320.510
  H      350.561     283.808     318.553
  H      350.971     282.689     319.881
  P      351.621     284.629     323.861
  C      350.726     286.031     325.832
  O      351.828     285.780     324.958
  O      352.877     284.203     323.178
  O      351.001     283.418     324.713
  H      351.714     282.819     325.003
  H      350.983     286.814     326.514
  H      350.496     285.142     326.380
  H      349.874     286.325     325.256

 6  7  8  9  10  11  12  13  14  15  16  26  31  32  33  34  35 0
 6-311+G(2d,p)
 ****
 36  37 0
 6-311+G(2d,p)
 ****
 1  2  3  4  5  17  18  19  20  21  22  23  24  25 0
 3-21G
 ****
 27  28  29  30  38  39  40  41  42  43  44  45 0
 3-21G
 ****


