%nproc=1
%NoSave
%Mem=1900MB
#P OB98/GEN NMR

erre ene a

0 1
  C      120.345    -676.190      -2.926
  O      120.910    -677.477      -2.766
  P      121.180    -678.027      -1.289
  C      121.229    -680.528      -2.015
  O      121.924    -679.439      -1.418
  C      121.913    -681.860      -1.665
  O      123.204    -681.917      -2.362
  C      122.190    -682.067      -0.171
  O      122.064    -683.474       0.091
  C      123.636    -681.652      -0.038
  O      124.259    -682.139       1.129
  C      124.203    -682.206      -1.354
  N      125.507    -681.644      -1.706
  C      126.613    -682.499      -1.669
  O      126.544    -683.691      -1.365
  N      127.813    -681.921      -1.939
  C      128.048    -680.590      -2.138
  O      129.178    -680.116      -2.250
  C      126.858    -679.723      -2.155
  C      125.656    -680.280      -1.939
  O      119.714    -678.419      -0.763
  O      121.856    -677.053      -0.380
  H      125.220    -681.972       1.051
  H      119.360    -677.717      -0.186
  H      128.623    -682.525      -1.928
  H      126.999    -678.669      -2.333
  H      124.749    -679.668      -1.930
  H      124.294    -683.297      -1.285
  H      123.697    -680.556      -0.009
  H      121.515    -681.480       0.474
  H      121.303    -682.682      -2.071
  H      121.215    -680.400      -3.100
  H      120.183    -680.539      -1.675
  P      120.624    -684.008       0.588
  C      120.399    -686.034      -1.056
  O      120.587    -685.575       0.262
  O      119.663    -683.370      -0.536
  O      120.266    -683.605       1.989
  H      120.030    -683.457      -1.434
  H      120.873    -685.368      -1.790
  H      119.337    -686.107      -1.280
  H      120.855    -687.033      -1.160
  H      120.231    -675.978      -3.968
  H      120.989    -675.460      -2.481
  H      119.388    -676.159      -2.449

 3  4  5  6  7  8  9  10  11  12  13  23  28  29  30  31  32 0
 6-311+G(2d,p)
 ****
 33  34 0
 6-311+G(2d,p)
 ****
 1  2  14  15  16  17  18  19  20  21  22  24  25  26 0
 3-21G
 ****
 27  35  36  37  38  39  40  41  42  43  44  45 0
 3-21G
 ****


