%nproc=1
%NoSave
%Mem=1900MB
#P OB98/GEN NMR

erre ene a

0 1
  C     -315.700     168.995    -301.045
  O     -316.033     167.698    -300.591
  H     -316.621     169.566    -301.185
  H     -315.172     168.936    -302.001
  H     -315.076     169.506    -300.306
  P     -314.809     166.688    -300.347
  C     -314.582     166.968    -297.779
  O     -314.027     167.240    -299.057
  C     -313.474     166.699    -296.764
  O     -312.822     165.439    -297.041
  C     -312.379     167.759    -296.732
  O     -312.764     168.868    -295.939
  C     -311.224     166.974    -296.127
  O     -311.335     166.891    -294.692
  C     -311.403     165.590    -296.768
  N     -307.422     163.246    -298.806
  C     -307.953     163.162    -297.534
  N     -307.287     162.374    -296.660
  N     -309.025     163.798    -297.151
  C     -309.563     164.573    -298.121
  C     -309.142     164.730    -299.423
  C     -307.968     163.992    -299.843
  O     -307.489     163.973    -300.973
  N     -309.959     165.586    -300.111
  C     -310.849     165.979    -299.219
  N     -310.639     165.405    -297.991
  O     -313.807     167.021    -301.552
  O     -315.168     165.243    -300.316
  H     -312.166     166.443    -294.461
  H     -313.316     166.213    -301.791
  H     -306.601     162.717    -299.046
  H     -311.654     166.674    -299.410
  H     -311.114     164.780    -296.091
  H     -310.262     167.445    -296.337
  H     -306.312     162.141    -296.791
  H     -312.112     168.073    -297.748
  H     -307.656     162.324    -295.719
  H     -313.947     166.606    -295.778
  H     -315.225     166.083    -297.850
  H     -315.186     167.823    -297.457
  P     -312.198     170.314    -296.352
  C     -314.665     170.776    -297.044
  O     -313.287     170.957    -297.342
  O     -310.977     169.968    -297.327
  O     -311.779     171.171    -295.208
  H     -310.396     170.746    -297.425
  H     -315.258     171.260    -297.792
  H     -314.882     171.201    -296.086
  H     -314.892     169.731    -297.030

 6  7  8  9  10  11  12  13  14  15  26  29  33  34 0
 6-311+G(2d,p)
 ****
 36  38  39  40  41 0
 6-311+G(2d,p)
 ****
 1  2  3  4  5  16  17  18  19  20  21  22  23  24  25 0
 3-21G
 ****
 27  28  30  31  32  35  37  42  43  44  45  46  47 0
 3-21G
 ****
 48  49 0
 3-21G
 ****


