%nproc=1
%NoSave
%Mem=1900MB
#P OB98/GEN NMR

erre ene a

0 1
  C      894.380    -897.260     246.612
  O      894.809    -896.050     247.209
  H      895.168    -898.000     246.733
  H      894.203    -897.100     245.541
  H      893.470    -897.620     247.092
  P      893.775    -894.820     247.317
  C      892.771    -895.920     249.423
  O      892.511    -895.350     248.137
  C      891.885    -895.260     250.465
  O      890.500    -895.370     250.097
  C      891.982    -895.910     251.849
  O      893.172    -895.510     252.508
  C      890.697    -895.400     252.498
  O      890.877    -894.050     252.992
  C      889.708    -895.450     251.317
  N      888.858    -896.620     251.324
  C      887.510    -896.390     251.555
  O      887.016    -895.280     251.762
  N      886.701    -897.510     251.544
  C      887.139    -898.790     251.459
  O      886.386    -899.770     251.556
  C      888.573    -898.990     251.248
  C      889.368    -897.910     251.186
  O      893.459    -894.140     246.018
  O      894.498    -893.810     248.338
  H      890.039    -893.810     253.438
  H      894.866    -893.060     247.840
  H      885.719    -897.360     251.723
  H      888.955    -900.000     251.154
  H      890.438    -898.000     251.050
  H      889.075    -894.560     251.325
  H      890.400    -896.010     253.352
  H      891.931    -896.990     251.759
  H      892.139    -894.180     250.513
  H      893.829    -895.750     249.667
  H      892.588    -897.010     249.367
  P      893.871    -896.500     253.554
  C      895.955    -897.150     252.190
  O      894.718    -897.600     252.727
  O      892.960    -897.090     254.597
  O      895.014    -895.640     254.240
  H      894.849    -895.550     255.207
  H      896.429    -897.953     251.666
  H      896.590    -896.819     252.985
  H      895.777    -896.339     251.515

 6  7  8  9  10  11  12  13  14  15  16  26  31  32  33  34  35 0
 6-311+G(2d,p)
 ****
 36  37 0
 6-311+G(2d,p)
 ****
 1  2  3  4  5  17  18  19  20  21  22  23  24  25 0
 3-21G
 ****
 27  28  29  30  38  39  40  41  42  43  44  45 0
 3-21G
 ****


