%nproc=1
%NoSave
%Mem=1900MB
#P OB98/GEN NMR

erre ene a

0 1
  C     -897.490     734.740    -610.892
  O     -897.460     735.239    -612.209
  H     -897.230     733.675    -610.911
  H     -898.480     734.840    -610.452
  H     -896.760     735.260    -610.262
  P     -898.050     736.713    -612.472
  C     -896.980     736.411    -614.801
  O     -898.120     736.877    -614.068
  C     -897.350     736.159    -616.263
  O     -897.780     737.394    -616.898
  C     -896.180     735.667    -617.122
  O     -895.780     734.343    -616.809
  C     -896.650     736.000    -618.522
  O     -897.470     734.989    -619.113
  C     -897.480     737.282    -618.306
  N     -896.810     738.474    -618.814
  C     -896.570     738.486    -620.197
  O     -896.870     737.563    -620.942
  N     -895.930     739.599    -620.667
  C     -895.460     740.641    -619.917
  O     -894.850     741.591    -620.390
  C     -895.720     740.552    -618.467
  C     -896.380     739.499    -617.991
  O     -897.340     737.837    -611.772
  O     -899.590     736.576    -612.056
  H     -897.000     734.137    -619.013
  H     -900.000     737.465    -611.913
  H     -895.750     739.637    -621.663
  H     -895.370     741.371    -617.848
  H     -896.590     739.404    -616.919
  H     -898.450     737.190    -618.811
  H     -895.810     736.139    -619.205
  H     -895.320     736.316    -616.917
  H     -898.200     735.459    -616.307
  H     -896.660     735.469    -614.350
  H     -896.180     737.142    -614.730
  P     -894.240     733.954    -616.595
  C     -895.180     732.037    -615.095
  O     -894.190     732.437    -616.042
  O     -893.350     734.979    -615.959
  O     -893.740     733.769    -618.124
  H     -892.810     734.057    -618.168
  H     -895.021     731.015    -614.823
  H     -896.152     732.143    -615.529
  H     -895.109     732.653    -614.223

 6  7  8  9  10  11  12  13  14  15  16  26  31  32  33  34  35 0
 6-311+G(2d,p)
 ****
 36  37 0
 6-311+G(2d,p)
 ****
 1  2  3  4  5  17  18  19  20  21  22  23  24  25 0
 3-21G
 ****
 27  28  29  30  38  39  40  41  42  43  44  45 0
 3-21G
 ****


