%nproc=1
%NoSave
%Mem=1900MB
#P OB98/GEN NMR

erre ene a

0 1
  C      772.751      96.428    -938.457
  O      772.312      97.575    -939.148
  H      773.740      96.628    -938.026
  H      772.828      95.582    -939.150
  H      772.059      96.179    -937.639
  P      770.792      97.573    -939.674
  C      769.530      95.955    -941.269
  O      770.756      96.594    -940.953
  C      769.749      94.905    -942.349
  O      770.409      93.745    -941.805
  C      768.465      94.394    -943.005
  O      768.011      95.284    -944.030
  C      768.950      93.081    -943.586
  O      769.709      93.322    -944.782
  C      769.879      92.560    -942.465
  N      767.788      88.013    -941.638
  C      768.358      88.525    -942.785
  N      768.376      87.741    -943.869
  N      768.882      89.726    -942.865
  C      768.783      90.438    -941.702
  C      768.239      90.035    -940.505
  C      767.694      88.700    -940.438
  O      767.180      88.176    -939.439
  N      768.332      91.004    -939.563
  C      768.928      92.011    -940.182
  N      769.205      91.716    -941.493
  O      770.615      99.025    -940.317
  O      769.755      97.302    -938.635
  H      769.090      93.700    -945.436
  H      769.701      99.349    -940.147
  H      767.401      87.095    -941.639
  H      769.158      92.979    -939.728
  H      770.719      91.989    -942.859
  H      768.138      92.408    -943.851
  H      767.950      86.810    -943.885
  H      767.677      94.207    -942.254
  H      768.823      88.088    -944.709
  H      770.427      95.324    -943.110
  H      768.799      96.705    -941.631
  H      769.131      95.488    -940.368
  P      766.445      95.263    -944.383
  C      764.873      93.180    -944.546
  O      766.123      93.773    -944.897
  O      766.366      96.139    -945.726
  O      765.550      95.779    -943.298
  H      765.462      96.502    -945.829
  H      764.816      92.196    -944.962
  H      764.074      93.778    -944.932
  H      764.793      93.122    -943.481

 6  7  8  9  10  11  12  13  14  15  26  29  33  34 0
 6-311+G(2d,p)
 ****
 36  38  39  40  41 0
 6-311+G(2d,p)
 ****
 1  2  3  4  5  16  17  18  19  20  21  22  23  24  25 0
 3-21G
 ****
 27  28  30  31  32  35  37  42  43  44  45  46  47 0
 3-21G
 ****
 48  49 0
 3-21G
 ****


