%nproc=1
%NoSave
%Mem=1900MB
#P OB98/GEN NMR

erre ene a

0 1
  C     -120.827      96.597      88.477
  O     -120.971      95.811      87.310
  P     -119.990      94.569      87.061
  C     -117.434      94.380      86.892
  O     -118.585      95.148      86.553
  C     -116.169      95.226      86.735
  O     -116.324      96.492      87.408
  C     -114.920      94.590      87.338
  O     -114.425      93.563      86.504
  C     -114.008      95.803      87.467
  O     -113.373      96.094      86.213
  C     -115.007      96.913      87.830
  N     -114.118     100.541      91.309
  C     -113.866     100.481      89.981
  N     -114.098      99.459      89.130
  C     -114.625      98.411      89.781
  C     -114.905      98.312      91.136
  C     -114.652      99.452      91.914
  N     -114.962      99.545      93.255
  N     -115.414      97.059      91.430
  C     -115.429      96.418      90.282
  N     -115.023      97.217      89.246
  O     -120.558      93.466      86.227
  O     -119.654      94.047      88.536
  H     -114.079      96.285      85.566
  H     -119.959      93.124      88.630
  H     -113.429     101.374      89.546
  H     -115.739      95.392      90.144
  H     -114.790      97.848      87.299
  H     -113.217      95.658      88.207
  H     -115.146      94.199      88.339
  H     -116.024      95.425      85.665
  H     -117.389      93.516      86.224
  H     -114.876     100.456      93.681
  H     -115.624      98.880      93.644
  H     -117.527      94.026      87.923
  P     -113.249      92.611      87.027
  C     -111.303      92.987      88.657
  O     -112.123      93.564      87.657
  O     -112.752      91.600      86.046
  O     -113.881      91.903      88.318
  H     -113.510      91.006      88.412
  H     -111.853      92.952      89.603
  H     -110.418      93.608      88.784
  H     -110.994      91.978      88.374
  H     -121.561      97.375      88.476
  H     -119.849      97.030      88.497
  H     -120.962      95.981      89.341

 3  4  5  6  7  8  9  10  11  12  22  25  29  30  31  32 0
 6-311+G(2d,p)
 ****
 33  36  37 0
 6-311+G(2d,p)
 ****
 1  2  13  14  15  16  17  18  19  20  21  23  24  26 0
 3-21G
 ****
 27  28  34  35  38  39  40  41  42  43  44  45  46  47  48 0
 3-21G
 ****


