%nproc=1
%NoSave
%Mem=1900MB
#P OB98/GEN NMR

erre ene a

0 1
  C      -33.382    -913.202      95.068
  O      -33.450    -912.198      96.050
  H      -34.258    -913.120      94.422
  H      -33.392    -914.189      95.546
  H      -32.482    -913.104      94.451
  P      -32.115    -911.792      96.831
  C      -32.323    -909.235      96.510
  O      -31.571    -910.405      96.212
  C      -32.073    -908.130      95.478
  O      -32.512    -908.570      94.181
  C      -32.850    -906.847      95.803
  O      -32.182    -905.958      96.683
  C      -33.016    -906.234      94.410
  O      -31.902    -905.388      94.082
  C      -33.078    -907.451      93.486
  N      -36.307    -908.002      89.560
  C      -35.014    -907.496      89.558
  N      -34.557    -907.043      88.377
  N      -34.269    -907.414      90.630
  C      -34.906    -907.805      91.763
  C      -36.173    -908.319      91.882
  C      -36.973    -908.468      90.687
  O      -38.105    -908.923      90.631
  N      -36.492    -908.578      93.202
  C      -35.444    -908.146      93.866
  N      -34.425    -907.750      93.032
  O      -31.033    -912.852      96.296
  O      -32.197    -911.830      98.324
  H      -32.055    -905.016      93.190
  H      -30.382    -913.032      96.995
  H      -36.817    -908.057      88.693
  H      -35.352    -908.136      94.947
  H      -32.467    -907.290      92.587
  H      -33.908    -905.600      94.376
  H      -35.118    -906.988      87.536
  H      -33.849    -907.090      96.185
  H      -33.702    -906.482      88.365
  H      -30.997    -907.931      95.413
  H      -31.994    -908.904      97.506
  H      -33.390    -909.475      96.571
  P      -32.562    -905.895      98.230
  C      -30.190    -906.017      99.350
  O      -31.426    -906.642      99.064
  O      -33.816    -906.899      98.337
  O      -32.891    -904.538      98.761
  H      -34.645    -906.403      98.334
  H      -29.575    -906.685      99.916
  H      -30.364    -905.126      99.917
  H      -29.696    -905.767      98.434

 6  7  8  9  10  11  12  13  14  15  26  29  33  34 0
 6-311+G(2d,p)
 ****
 36  38  39  40  41 0
 6-311+G(2d,p)
 ****
 1  2  3  4  5  16  17  18  19  20  21  22  23  24  25 0
 3-21G
 ****
 27  28  30  31  32  35  37  42  43  44  45  46  47 0
 3-21G
 ****
 48  49 0
 3-21G
 ****


