%nproc=1
%NoSave
%Mem=1900MB
#P OB98/GEN NMR

erre ene a

0 1
  C      876.428     -69.573    -557.237
  O      877.745     -69.099    -557.392
  H      876.444     -70.667    -557.294
  H      875.800     -69.193    -558.045
  H      876.009     -69.278    -556.271
  P      878.090     -67.605    -556.930
  C      880.213     -68.421    -555.710
  O      879.675     -67.522    -556.663
  C      881.677     -68.101    -555.377
  O      882.520     -68.362    -556.514
  C      881.871     -66.616    -555.039
  O      881.594     -66.258    -553.691
  C      883.349     -66.414    -555.357
  O      884.176     -66.793    -554.244
  C      883.567     -67.374    -556.543
  N      885.856     -66.819    -561.074
  C      886.223     -67.617    -559.995
  N      887.387     -68.300    -560.136
  N      885.529     -67.710    -558.901
  C      884.450     -66.895    -558.867
  C      883.995     -66.057    -559.862
  C      884.741     -66.002    -561.102
  O      884.463     -65.308    -562.076
  N      882.852     -65.380    -559.473
  C      882.674     -65.761    -558.221
  N      883.597     -66.703    -557.820
  O      877.485     -67.525    -555.441
  O      877.525     -66.518    -557.794
  H      885.106     -66.668    -554.500
  H      877.264     -66.604    -555.221
  H      886.409     -66.817    -561.904
  H      881.871     -65.405    -557.577
  H      884.513     -67.923    -556.438
  H      883.572     -65.369    -555.586
  H      888.011     -68.173    -560.919
  H      881.279     -65.984    -555.712
  H      887.818     -68.677    -559.289
  H      882.015     -68.746    -554.563
  H      880.146     -69.423    -556.142
  H      879.604     -68.424    -554.804
  P      880.873     -64.871    -553.363
  C      879.032     -66.090    -551.984
  O      880.023     -65.084    -552.021
  O      879.750     -64.767    -554.512
  O      881.766     -63.676    -553.362
  H      880.079     -64.221    -555.250
  H      878.565     -66.095    -551.021
  H      879.484     -67.043    -552.166
  H      878.297     -65.894    -552.736

 6  7  8  9  10  11  12  13  14  15  26  29  33  34 0
 6-311+G(2d,p)
 ****
 36  38  39  40  41 0
 6-311+G(2d,p)
 ****
 1  2  3  4  5  16  17  18  19  20  21  22  23  24  25 0
 3-21G
 ****
 27  28  30  31  32  35  37  42  43  44  45  46  47 0
 3-21G
 ****
 48  49 0
 3-21G
 ****


