%nproc=1
%NoSave
%Mem=1900MB
#P OB98/GEN NMR

erre ene a

0 1
  C      427.249     604.233     274.570
  O      427.118     604.575     273.200
  P      428.363     605.298     272.479
  C      426.798     607.266     271.779
  O      427.744     606.287     271.379
  C      425.901     607.656     270.613
  O      426.685     608.436     269.671
  C      425.299     606.480     269.837
  O      424.014     606.907     269.359
  C      426.245     606.328     268.663
  O      425.660     605.641     267.565
  C      426.601     607.779     268.384
  N      428.957     607.199     263.943
  C      427.670     606.866     264.314
  N      426.873     606.356     263.340
  N      427.188     607.015     265.522
  C      428.094     607.550     266.379
  C      429.402     607.887     266.147
  C      429.901     607.746     264.795
  O      431.014     608.111     264.408
  N      430.024     608.309     267.296
  C      429.068     608.315     268.195
  N      427.865     607.899     267.685
  O      429.011     604.113     271.609
  O      429.361     605.937     273.399
  H      425.017     606.247     267.143
  H      429.726     603.671     272.097
  H      429.258     607.081     262.990
  H      429.183     608.600     269.230
  H      425.842     608.293     267.785
  H      427.133     605.754     268.975
  H      427.168     606.237     262.378
  H      425.201     605.564     270.425
  H      425.919     606.134     263.574
  H      425.108     608.314     270.998
  H      427.337     608.149     272.140
  H      426.208     606.869     272.614
  P      422.924     605.769     269.040
  C      422.346     606.885     266.776
  O      421.859     606.388     268.010
  O      422.090     605.693     270.412
  O      423.491     604.438     268.687
  H      421.767     604.776     270.549
  H      421.522     606.894     266.053
  H      423.155     606.271     266.377
  H      422.703     607.915     266.907
  H      426.349     603.763     274.908
  H      427.426     605.119     275.143
  H      428.071     603.559     274.692

 3  4  5  6  7  8  9  10  11  12  23  26  30  31 0
 6-311+G(2d,p)
 ****
 33  35  36  37  38 0
 6-311+G(2d,p)
 ****
 1  2  13  14  15  16  17  18  19  20  21  22  24  25 0
 3-21G
 ****
 27  28  29  32  34  39  40  41  42  43  44  45  46  47  48  49 0
 3-21G
 ****


