%nproc=1
%NoSave
%Mem=1900MB
#P OB98/GEN NMR

erre ene a

0 1
  C       36.177     -27.437     -40.635
  O       35.161     -27.132     -39.696
  P       33.638     -27.199     -40.203
  C       33.244     -24.635     -40.339
  O       33.383     -25.860     -41.049
  C       32.125     -23.775     -40.928
  O       32.524     -23.324     -42.245
  C       30.785     -24.498     -41.060
  O       29.749     -23.557     -40.772
  C       30.723     -24.862     -42.532
  O       29.379     -25.033     -42.977
  C       31.471     -23.678     -43.165
  N       32.000     -24.002     -44.485
  C       31.130     -24.636     -45.376
  O       30.002     -24.965     -45.007
  N       31.573     -24.927     -46.642
  C       32.812     -24.703     -46.954
  N       33.203     -25.006     -48.220
  C       33.796     -24.150     -46.003
  C       33.321     -23.806     -44.807
  O       32.803     -26.952     -38.862
  O       33.263     -28.477     -40.878
  H       28.944     -25.688     -42.387
  H       31.955     -27.435     -38.886
  H       34.825     -24.018     -46.303
  H       33.964     -23.372     -44.054
  H       30.807     -22.809     -43.259
  H       31.267     -25.798     -42.707
  H       30.698     -25.359     -40.392
  H       32.014     -22.882     -40.300
  H       32.514     -25.398     -48.849
  H       34.180     -24.074     -40.410
  H       34.148     -24.868     -48.553
  H       33.053     -24.849     -39.283
  P       28.544     -24.042     -39.832
  C       26.775     -23.866     -41.684
  O       27.494     -24.732     -40.828
  O       27.812     -22.650     -39.510
  O       28.875     -24.780     -38.579
  H       27.083     -22.801     -38.881
  H       26.205     -24.470     -42.395
  H       27.460     -23.220     -42.239
  H       26.077     -23.259     -41.099
  H       37.134     -27.353     -40.164
  H       36.122     -26.752     -41.455
  H       36.042     -28.436     -40.994

 3  4  5  6  7  8  9  10  11  12  13  21  23  27  28  29  30  32 0
 6-311+G(2d,p)
 ****
 34  35 0
 6-311+G(2d,p)
 ****
 1  2  14  15  16  17  18  19  20  22  24  25  26 0
 3-21G
 ****
 31  33  36  37  38  39  40  41  42  43  44  45  46 0
 3-21G
 ****


