%nproc=1
%NoSave
%Mem=1900MB
#P OB98/GEN NMR

erre ene a

0 1
  C       43.673      21.653      15.041
  O       43.283      20.291      15.153
  P       41.921      19.970      15.942
  C       43.249      19.660      18.153
  O       42.209      20.354      17.473
  C       43.543      20.317      19.497
  O       44.070      21.643      19.298
  C       42.327      20.489      20.396
  O       42.011      19.303      21.104
  C       42.825      21.561      21.351
  O       43.675      20.968      22.350
  C       43.649      22.460      20.423
  N       42.847      27.474      21.016
  C       43.598      26.595      21.711
  N       43.751      25.272      21.497
  C       42.995      24.867      20.463
  C       42.151      25.641      19.686
  C       42.096      27.011      19.987
  N       41.352      27.911      19.259
  N       41.540      24.872      18.720
  C       42.012      23.658      18.903
  N       42.904      23.605      19.938
  O       41.886      18.370      15.964
  O       40.690      20.552      15.338
  H       44.421      20.551      21.877
  H       40.968      18.058      16.079
  H       44.159      27.011      22.544
  H       41.747      22.795      18.308
  H       44.557      22.838      20.906
  H       42.014      22.068      21.882
  H       41.467      20.872      19.832
  H       44.313      19.720      20.003
  H       44.154      19.682      17.539
  H       41.509      28.893      19.420
  H       40.958      27.599      18.378
  H       42.948      18.617      18.295
  P       40.463      19.065      21.462
  C       40.919      20.209      23.749
  O       40.117      20.150      22.586
  O       40.485      17.676      22.255
  O       39.562      19.027      20.274
  H       39.623      17.226      22.180
  H       40.753      21.169      24.243
  H       41.981      20.123      23.502
  H       40.636      19.406      24.435
  H       44.591      21.717      14.495
  H       43.809      22.067      16.018
  H       42.912      22.201      14.525

 3  4  5  6  7  8  9  10  11  12  22  25  29  30  31  32 0
 6-311+G(2d,p)
 ****
 33  36  37 0
 6-311+G(2d,p)
 ****
 1  2  13  14  15  16  17  18  19  20  21  23  24  26 0
 3-21G
 ****
 27  28  34  35  38  39  40  41  42  43  44  45  46  47  48 0
 3-21G
 ****


