%nproc=1
%NoSave
%Mem=1900MB
#P OB98/GEN NMR

erre ene a

0 1
  C     1061.090    -341.648     690.774
  O     1060.503    -340.747     691.703
  H     1060.483    -342.575     690.760
  H     1062.102    -341.911     691.097
  H     1061.103    -341.219     689.782
  P     1061.264    -339.345     691.901
  C     1060.554    -337.985     689.793
  O     1060.341    -338.226     691.182
  C     1060.079    -336.579     689.417
  O     1058.632    -336.472     689.550
  C     1060.670    -335.468     690.277
  O     1061.957    -335.096     689.811
  C     1059.639    -334.349     690.102
  O     1059.837    -333.665     688.845
  C     1058.325    -335.149     690.079
  N     1056.499    -332.555     694.028
  C     1057.052    -332.122     692.841
  N     1057.161    -330.776     692.697
  N     1057.453    -332.901     691.868
  C     1057.280    -334.209     692.153
  C     1056.753    -334.796     693.305
  C     1056.289    -333.906     694.342
  O     1055.734    -334.244     695.373
  N     1056.747    -336.161     693.218
  C     1057.323    -336.426     692.036
  N     1057.688    -335.267     691.375
  O     1062.526    -339.464     690.900
  O     1061.688    -339.033     693.289
  H     1060.592    -333.082     688.939
  H     1063.263    -338.945     691.272
  H     1056.198    -331.906     694.711
  H     1057.482    -337.416     691.642
  H     1057.595    -334.693     689.397
  H     1059.703    -333.626     690.899
  H     1057.198    -330.174     693.508
  H     1060.714    -335.758     691.338
  H     1057.583    -330.440     691.824
  H     1060.312    -336.410     688.361
  H     1059.978    -338.716     689.208
  H     1061.608    -338.105     689.561
  P     1062.694    -333.857     690.553
  C     1064.087    -335.347     692.163
  O     1064.100    -334.396     691.091
  O     1061.827    -333.660     691.884
  O     1062.750    -332.597     689.744
  H     1062.011    -332.783     692.268
  H     1065.092    -335.614     692.415
  H     1063.551    -336.221     691.858
  H     1063.608    -334.915     693.017

 6  7  8  9  10  11  12  13  14  15  26  29  33  34 0
 6-311+G(2d,p)
 ****
 36  38  39  40  41 0
 6-311+G(2d,p)
 ****
 1  2  3  4  5  16  17  18  19  20  21  22  23  24  25 0
 3-21G
 ****
 27  28  30  31  32  35  37  42  43  44  45  46  47 0
 3-21G
 ****
 48  49 0
 3-21G
 ****


