%nproc=1
%NoSave
%Mem=1900MB
#P OB98/GEN NMR

erre ene a

0 1
  C     -149.906    -431.436    -238.773
  O     -149.719    -431.322    -240.169
  H     -148.976    -431.788    -238.319
  H     -150.697    -432.157    -238.554
  H     -150.162    -430.464    -238.334
  P     -150.868    -430.646    -241.057
  C     -149.040    -430.467    -242.870
  O     -150.400    -430.755    -242.583
  C     -148.578    -431.219    -244.122
  O     -148.287    -432.600    -243.759
  C     -149.626    -431.254    -245.264
  O     -148.901    -431.304    -246.496
  C     -150.318    -432.570    -244.971
  O     -151.152    -432.993    -246.018
  C     -149.088    -433.437    -244.635
  N     -149.380    -434.722    -244.011
  C     -149.173    -435.869    -244.765
  O     -148.758    -435.877    -245.927
  N     -149.467    -437.056    -244.143
  C     -149.911    -437.196    -242.866
  O     -150.130    -438.291    -242.343
  C     -150.121    -435.941    -242.111
  C     -149.839    -434.785    -242.706
  O     -151.309    -429.287    -240.621
  O     -152.071    -431.708    -240.974
  H     -152.738    -431.397    -240.339
  H     -151.818    -433.623    -245.666
  H     -149.317    -437.896    -244.682
  H     -150.480    -436.014    -241.096
  H     -149.972    -433.843    -242.183
  H     -148.495    -433.599    -245.543
  H     -150.967    -432.462    -244.089
  H     -150.286    -430.381    -245.260
  H     -147.633    -430.773    -244.473
  H     -148.433    -430.783    -242.007
  H     -148.916    -429.389    -243.010
  P     -148.800    -430.078    -247.517
  C     -146.237    -430.041    -247.865
  O     -147.510    -430.294    -248.453
  O     -148.839    -428.729    -246.857
  O     -150.041    -430.263    -248.524
  H     -150.291    -429.388    -248.887
  H     -145.468    -430.221    -248.587
  H     -146.096    -430.690    -247.026
  H     -146.190    -429.023    -247.540

 6  7  8  9  10  11  12  13  14  15  16  27  31  32  33  34  35 0
 6-311+G(2d,p)
 ****
 36  37 0
 6-311+G(2d,p)
 ****
 1  2  3  4  5  17  18  19  20  21  22  23  24  25 0
 3-21G
 ****
 26  28  29  30  38  39  40  41  42  43  44  45 0
 3-21G
 ****


