%nproc=1
%NoSave
%Mem=1900MB
#P OB98/GEN NMR

erre ene a

0 1
  C      -16.521    -168.062     -26.483
  O      -16.874    -168.639     -27.724
  H      -15.915    -167.171     -26.671
  H      -15.929    -168.766     -25.896
  H      -17.412    -167.765     -25.922
  P      -17.931    -169.842     -27.743
  C      -16.360    -171.352     -29.126
  O      -17.627    -170.706     -29.059
  C      -16.213    -172.069     -30.466
  O      -17.104    -173.204     -30.523
  C      -16.559    -171.204     -31.673
  O      -15.516    -170.288     -31.954
  C      -16.777    -172.275     -32.734
  O      -15.520    -172.740     -33.256
  C      -17.475    -173.384     -31.910
  N      -18.928    -173.390     -32.069
  C      -19.413    -173.713     -33.330
  O      -18.682    -173.944     -34.293
  N      -20.780    -173.737     -33.459
  C      -21.681    -173.402     -32.488
  O      -22.895    -173.393     -32.670
  C      -21.109    -173.041     -31.183
  C      -19.782    -173.051     -31.033
  O      -19.362    -169.456     -27.564
  O      -17.428    -170.801     -26.562
  H      -15.731    -173.459     -33.882
  H      -17.974    -170.657     -25.765
  H      -21.151    -173.957     -34.369
  H      -21.794    -172.760     -30.393
  H      -19.341    -172.777     -30.082
  H      -17.095    -174.373     -32.207
  H      -17.358    -171.916     -33.583
  H      -17.506    -170.680     -31.505
  H      -15.183    -172.445     -30.538
  H      -16.295    -172.082     -28.311
  H      -15.572    -170.602     -28.997
  P      -15.820    -168.923     -32.727
  C      -14.358    -169.855     -34.614
  O      -14.655    -168.714     -33.818
  O      -16.070    -167.738     -31.854
  O      -17.100    -169.257     -33.627
  H      -17.892    -168.834     -33.244
  H      -13.576    -169.615     -35.303
  H      -15.233    -170.150     -35.155
  H      -14.042    -170.659     -33.982

 6  7  8  9  10  11  12  13  14  15  16  26  31  32  33  34  35 0
 6-311+G(2d,p)
 ****
 36  37 0
 6-311+G(2d,p)
 ****
 1  2  3  4  5  17  18  19  20  21  22  23  24  25 0
 3-21G
 ****
 27  28  29  30  38  39  40  41  42  43  44  45 0
 3-21G
 ****


