%nproc=1
%NoSave
%Mem=1900MB
#P OB98/GEN NMR

erre ene a

0 1
  C      -35.631    -419.886    -311.270
  O      -36.040    -418.513    -311.251
  P      -35.890    -417.684    -312.617
  C      -38.419    -417.977    -313.246
  O      -37.353    -417.097    -312.926
  C      -39.101    -417.523    -314.539
  O      -40.061    -418.511    -314.984
  C      -39.885    -416.225    -314.403
  O      -39.022    -415.102    -314.342
  C      -40.766    -416.293    -315.648
  O      -40.026    -415.870    -316.803
  C      -41.070    -417.800    -315.740
  N      -42.415    -418.141    -315.289
  C      -43.429    -418.006    -316.229
  O      -43.230    -417.604    -317.376
  N      -44.687    -418.335    -315.808
  C      -45.028    -418.744    -314.551
  O      -46.175    -419.035    -314.234
  C      -43.923    -418.823    -313.584
  C      -42.685    -418.522    -313.985
  O      -35.706    -418.866    -313.679
  O      -34.783    -416.686    -312.580
  H      -36.224    -419.661    -313.457
  H      -39.203    -416.396    -316.812
  H      -45.436    -418.256    -316.480
  H      -44.162    -419.122    -312.569
  H      -41.858    -418.570    -313.285
  H      -40.967    -418.145    -316.777
  H      -41.648    -415.652    -315.570
  H      -40.513    -416.263    -313.504
  H      -38.330    -417.420    -315.311
  H      -39.156    -417.983    -312.435
  H      -38.024    -418.990    -313.345
  P      -39.054    -414.240    -312.986
  C      -37.519    -415.281    -311.143
  O      -37.630    -414.456    -312.276
  O      -40.066    -415.104    -312.092
  O      -39.464    -412.817    -313.187
  H      -39.894    -416.057    -312.143
  H      -36.471    -415.580    -311.022
  H      -38.132    -416.182    -311.239
  H      -37.824    -414.722    -310.250
  H      -35.783    -420.317    -310.302
  H      -34.594    -419.946    -311.528
  H      -36.210    -420.421    -311.994

 3  4  5  6  7  8  9  10  11  12  13  24  28  29  30  31  32 0
 6-311+G(2d,p)
 ****
 33  34 0
 6-311+G(2d,p)
 ****
 1  2  14  15  16  17  18  19  20  21  22  23  25  26  27 0
 3-21G
 ****
 35  36  37  38  39  40  41  42  43  44  45 0
 3-21G
 ****


