%nproc=1
%NoSave
%Mem=1900MB
#P OB98/GEN NMR

erre ene a

0 1
  C       -1.796     225.387     189.971
  O       -1.364     226.425     189.114
  P       -0.705     226.087     187.691
  C        1.433     224.851     186.947
  O        0.741     225.470     188.027
  C        2.696     224.148     187.443
  O        2.371     223.193     188.471
  C        3.434     223.364     186.366
  O        4.172     224.236     185.532
  C        4.283     222.429     187.215
  O        5.481     223.080     187.670
  C        3.343     222.127     188.404
  N        2.710     220.820     188.292
  C        3.444     219.739     188.792
  O        4.571     219.914     189.258
  N        2.905     218.477     188.703
  C        1.746     218.314     188.144
  N        1.271     217.040     188.078
  C        0.953     219.423     187.579
  C        1.491     220.636     187.685
  O       -0.712     227.204     186.704
  O       -1.535     224.804     187.206
  H        5.953     223.371     186.863
  H       -2.442     225.054     186.905
  H       -0.003     219.235     187.114
  H        0.978     221.506     187.293
  H        3.899     222.158     189.349
  H        4.594     221.538     186.662
  H        2.718     222.778     185.778
  H        3.358     224.908     187.880
  H        1.857     216.304     188.450
  H        1.711     225.628     186.226
  H        0.397     216.796     187.633
  H        0.762     224.143     186.448
  P        4.623     223.755     184.074
  C        5.825     221.739     183.040
  O        5.355     222.340     184.231
  O        5.360     224.770     183.265
  O        3.237     223.367     183.366
  H        3.235     223.722     182.458
  H        6.571     220.985     183.298
  H        6.282     222.481     182.379
  H        4.993     221.254     182.524
  H       -2.204     225.809     190.865
  H       -0.965     224.761     190.220
  H       -2.546     224.805     189.477

 3  4  5  6  7  8  9  10  11  12  13  23  27  28  29  30  32 0
 6-311+G(2d,p)
 ****
 34  35 0
 6-311+G(2d,p)
 ****
 1  2  14  15  16  17  18  19  20  21  22  24  25  26 0
 3-21G
 ****
 31  33  36  37  38  39  40  41  42  43  44  45  46 0
 3-21G
 ****


