%nproc=1
%NoSave
%Mem=1900MB
#P OB98/GEN NMR

erre ene a

0 1
  C      157.804    -317.482     362.366
  O      157.256    -318.695     361.876
  P      155.663    -318.845     361.722
  C      155.614    -320.696     359.929
  O      155.355    -320.356     361.296
  C      155.751    -322.205     359.771
  O      156.911    -322.688     360.491
  C      154.571    -323.006     360.312
  O      153.463    -322.929     359.432
  C      155.186    -324.382     360.464
  O      155.194    -325.076     359.199
  C      156.636    -324.045     360.893
  N      156.432    -327.304     364.813
  C      156.013    -327.414     363.531
  N      156.069    -326.477     362.556
  C      156.604    -325.343     363.022
  C      157.042    -325.076     364.305
  C      156.944    -326.138     365.230
  N      157.439    -326.063     366.526
  N      157.484    -323.767     364.413
  C      157.314    -323.256     363.201
  N      156.842    -324.182     362.313
  O      155.006    -317.798     360.880
  O      155.136    -318.784     363.234
  H      155.798    -325.847     359.291
  H      154.534    -318.018     363.333
  H      155.582    -328.384     363.245
  H      157.532    -322.238     362.926
  H      157.365    -324.678     360.385
  H      154.647    -325.016     361.174
  H      154.289    -322.624     361.309
  H      155.908    -322.421     358.698
  H      156.531    -320.193     359.616
  H      157.467    -326.927     367.038
  H      158.099    -325.315     366.756
  H      154.793    -320.312     359.306
  P      151.984    -322.786     360.028
  C      151.021    -321.730     357.887
  O      150.972    -322.840     358.779
  O      151.768    -321.648     360.966
  O      151.719    -324.191     360.755
  H      151.142    -324.056     361.519
  H      150.472    -320.888     358.335
  H      150.530    -322.022     356.946
  H      152.042    -321.433     357.676
  H      158.870    -317.561     362.402
  H      157.427    -317.292     363.349
  H      157.527    -316.678     361.717

 3  4  5  6  7  8  9  10  11  12  22  25  29  30  31  32 0
 6-311+G(2d,p)
 ****
 33  36  37 0
 6-311+G(2d,p)
 ****
 1  2  13  14  15  16  17  18  19  20  21  23  24  26 0
 3-21G
 ****
 27  28  34  35  38  39  40  41  42  43  44  45  46  47  48 0
 3-21G
 ****


