%nproc=1
%NoSave
%Mem=1900MB
#P OB98/GEN NMR

erre ene a

0 1
  C      271.375    -125.968    -110.966
  O      270.353    -126.247    -110.031
  H      270.967    -126.080    -111.974
  H      272.197    -126.677    -110.839
  H      271.741    -124.946    -110.845
  P      270.683    -125.942    -108.491
  C      272.682    -126.703    -107.021
  O      271.740    -127.055    -108.022
  C      273.703    -127.821    -106.840
  O      274.459    -128.014    -108.057
  C      274.728    -127.563    -105.740
  O      274.220    -127.899    -104.456
  C      275.834    -128.516    -106.160
  O      275.478    -129.865    -105.795
  C      275.823    -128.358    -107.686
  N      280.634    -127.258    -108.838
  C      280.086    -128.422    -108.334
  N      280.945    -129.435    -108.092
  N      278.813    -128.579    -108.082
  C      278.075    -127.478    -108.361
  C      278.502    -126.269    -108.864
  C      279.911    -126.112    -109.145
  O      280.444    -125.111    -109.614
  N      277.458    -125.397    -109.025
  C      276.405    -126.066    -108.601
  N      276.727    -127.334    -108.180
  O      269.337    -126.371    -107.731
  O      271.053    -124.531    -108.182
  H      276.208    -130.439    -106.093
  H      269.192    -125.762    -106.981
  H      281.623    -127.186    -109.002
  H      275.394    -125.684    -108.580
  H      276.080    -129.290    -108.203
  H      276.787    -128.295    -105.676
  H      281.943    -129.363    -108.217
  H      275.102    -126.532    -105.772
  H      280.563    -130.309    -107.754
  H      273.155    -128.752    -106.645
  H      272.156    -126.538    -106.074
  H      273.184    -125.776    -107.315
  P      275.113    -127.510    -103.178
  C      277.396    -128.366    -102.282
  O      276.258    -128.630    -103.095
  O      274.156    -127.868    -101.947
  O      275.575    -126.093    -103.139
  H      274.419    -127.355    -101.159
  H      278.067    -129.198    -102.327
  H      277.084    -128.214    -101.270
  H      277.893    -127.488    -102.638

 6  7  8  9  10  11  12  13  14  15  26  29  33  34 0
 6-311+G(2d,p)
 ****
 36  38  39  40  41 0
 6-311+G(2d,p)
 ****
 1  2  3  4  5  16  17  18  19  20  21  22  23  24  25 0
 3-21G
 ****
 27  28  30  31  32  35  37  42  43  44  45  46  47 0
 3-21G
 ****
 48  49 0
 3-21G
 ****


