%nproc=1
%NoSave
%Mem=1900MB
#P OB98/GEN NMR

erre ene a

0 1
  C     -113.257     -91.005       5.860
  O     -111.997     -90.360       5.872
  P     -111.132     -90.230       4.534
  C     -109.752     -91.763       3.016
  O     -110.573     -91.693       4.175
  C     -108.920     -93.045       3.003
  O     -109.815     -94.191       3.004
  C     -107.991     -93.193       1.789
  O     -106.823     -93.882       2.247
  C     -108.788     -94.099       0.867
  O     -107.976     -94.759      -0.098
  C     -109.438     -95.025       1.889
  N     -111.114     -98.509      -1.455
  C     -109.881     -98.019      -1.210
  N     -109.520     -97.072      -0.321
  C     -110.587     -96.627       0.360
  C     -111.909     -97.009       0.200
  C     -112.161     -98.015      -0.750
  N     -113.406     -98.551      -0.987
  N     -112.726     -96.280       1.044
  C     -111.912     -95.478       1.697
  N     -110.605     -95.698       1.363
  O     -110.097     -89.155       4.546
  O     -112.222     -89.969       3.392
  H     -108.446     -95.557      -0.403
  H     -112.190     -89.034       3.112
  H     -109.077     -98.445      -1.804
  H     -112.211     -94.727       2.414
  H     -108.743     -95.788       2.256
  H     -109.538     -93.508       0.329
  H     -107.721     -92.244       1.318
  H     -108.342     -93.087       3.934
  H     -109.082     -90.899       3.024
  H     -113.451     -99.357      -1.592
  H     -114.145     -98.398      -0.304
  H     -110.376     -91.709       2.116
  P     -105.372     -93.405       1.759
  C     -104.015     -93.543      -0.406
  O     -105.272     -93.773       0.204
  O     -104.231     -93.867       2.602
  O     -105.490     -91.806       1.746
  H     -104.596     -91.414       1.735
  H     -103.922     -92.483      -0.658
  H     -103.952     -94.133      -1.324
  H     -103.195     -93.829       0.259
  H     -113.675     -90.989       6.845
  H     -113.136     -92.019       5.540
  H     -113.913     -90.494       5.186

 3  4  5  6  7  8  9  10  11  12  22  25  29  30  31  32 0
 6-311+G(2d,p)
 ****
 33  36  37 0
 6-311+G(2d,p)
 ****
 1  2  13  14  15  16  17  18  19  20  21  23  24  26 0
 3-21G
 ****
 27  28  34  35  38  39  40  41  42  43  44  45  46  47  48 0
 3-21G
 ****


