%nproc=1
%NoSave
%Mem=1900MB
#P OB98/GEN NMR

erre ene a

0 1
  C      306.323    -849.905     220.311
  O      305.814    -851.080     219.703
  P      305.365    -851.017     218.182
  C      306.813    -853.070     217.485
  O      305.516    -852.508     217.583
  C      306.890    -854.070     216.331
  O      306.517    -853.440     215.097
  C      308.286    -854.621     216.101
  O      308.615    -855.684     217.000
  C      308.143    -855.158     214.687
  O      307.489    -856.440     214.693
  C      307.253    -854.101     214.029
  N      309.134    -852.932     209.470
  C      308.242    -853.925     209.852
  N      307.865    -854.784     208.852
  N      307.784    -854.092     211.032
  C      308.259    -853.174     211.924
  C      309.165    -852.138     211.695
  C      309.671    -851.982     210.348
  O      310.508    -851.152     209.991
  N      309.404    -851.411     212.840
  C      308.690    -852.012     213.771
  N      308.004    -853.105     213.285
  O      306.532    -850.217     217.456
  O      304.021    -850.384     217.952
  H      308.125    -857.095     215.007
  H      306.239    -849.879     216.576
  H      309.468    -852.865     208.518
  H      308.630    -851.693     214.785
  H      306.505    -854.549     213.338
  H      309.100    -855.309     214.175
  H      308.232    -854.747     207.912
  H      309.049    -853.836     216.117
  H      307.237    -855.555     209.099
  H      306.179    -854.879     216.547
  H      307.069    -853.562     218.433
  H      307.547    -852.245     217.332
  P      310.162    -856.078     217.158
  C      309.665    -856.177     219.702
  O      310.297    -856.775     218.577
  O      310.881    -854.659     217.332
  O      310.700    -856.841     215.969
  H      311.804    -854.693     217.008
  H      309.613    -856.904     220.515
  H      308.626    -855.883     219.431
  H      310.233    -855.303     220.028
  H      306.578    -850.112     221.329
  H      305.580    -849.136     220.279
  H      307.195    -849.580     219.784

 3  4  5  6  7  8  9  10  11  12  23  26  30  31 0
 6-311+G(2d,p)
 ****
 33  35  36  37  38 0
 6-311+G(2d,p)
 ****
 1  2  13  14  15  16  17  18  19  20  21  22  24  25 0
 3-21G
 ****
 27  28  29  32  34  39  40  41  42  43  44  45  46  47  48  49 0
 3-21G
 ****


