%nproc=1
%NoSave
%Mem=1900MB
#P OB98/GEN NMR

erre ene a

0 1
  C      974.728    1013.542    -898.958
  O      973.546    1013.759    -898.208
  P      972.301    1012.787    -898.508
  C      971.748    1012.843    -895.968
  O      971.281    1013.008    -897.288
  C      970.636    1012.335    -895.068
  O      970.007    1011.175    -895.668
  C      971.096    1011.874    -893.698
  O      971.346    1012.993    -892.848
  C      969.939    1011.012    -893.238
  O      968.903    1011.799    -892.618
  C      969.431    1010.411    -894.578
  N      969.743    1008.992    -894.718
  C      968.813    1008.107    -894.148
  O      967.808    1008.540    -893.578
  N      969.059    1006.768    -894.218
  C      970.146    1006.335    -894.808
  N      970.322    1004.988    -894.868
  C      971.157    1007.237    -895.408
  C      970.898    1008.536    -895.308
  O      972.894    1011.330    -898.238
  O      971.719    1012.924    -899.888
  H      969.368    1012.399    -891.988
  H      972.417    1010.654    -898.748
  H      972.042    1006.833    -895.878
  H      971.591    1009.266    -895.718
  H      968.344    1010.531    -894.658
  H      970.230    1010.249    -892.518
  H      972.010    1011.253    -893.778
  H      969.878    1013.114    -894.978
  H      969.634    1004.399    -894.428
  H      972.092    1013.817    -895.578
  H      971.136    1004.554    -895.318
  H      972.599    1012.145    -895.968
  P      972.819    1013.170    -892.268
  C      972.708    1015.735    -892.488
  O      972.818    1014.637    -891.608
  O      973.667    1013.412    -893.608
  O      973.381    1012.066    -891.438
  H      974.621    1013.447    -893.388
  H      972.567    1016.644    -891.908
  H      971.844    1015.591    -893.158
  H      973.616    1015.841    -893.068
  H      975.473    1014.251    -898.663
  H      974.516    1013.660    -900.000
  H      975.088    1012.551    -898.778

 3  4  5  6  7  8  9  10  11  12  13  21  23  27  28  29  30  32 0
 6-311+G(2d,p)
 ****
 34  35 0
 6-311+G(2d,p)
 ****
 1  2  14  15  16  17  18  19  20  22  24  25  26 0
 3-21G
 ****
 31  33  36  37  38  39  40  41  42  43  44  45  46 0
 3-21G
 ****


