%nproc=1
%NoSave
%Mem=1900MB
#P OB98/GEN NMR

erre ene a

0 1
  C      -14.420     -30.171      -2.056
  O      -13.490     -29.871      -1.024
  P      -13.614     -30.694       0.351
  C      -11.613     -29.306       1.255
  O      -12.943     -29.762       1.472
  C      -11.169     -28.388       2.389
  O      -11.823     -27.109       2.278
  C      -11.501     -28.899       3.783
  O      -10.553     -29.845       4.248
  C      -11.409     -27.615       4.590
  O      -10.029     -27.306       4.861
  C      -12.000     -26.585       3.621
  N      -15.350     -24.174       6.637
  C      -14.009     -24.304       6.706
  N      -13.189     -24.972       5.870
  C      -13.891     -25.579       4.899
  C      -15.265     -25.568       4.723
  C      -16.012     -24.814       5.642
  N      -17.376     -24.659       5.553
  N      -15.618     -26.308       3.616
  C      -14.480     -26.750       3.125
  N      -13.407     -26.328       3.860
  O      -12.546     -31.871       0.163
  O      -14.976     -31.213       0.655
  H       -9.752     -27.877       5.603
  H      -12.775     -32.625       0.740
  H      -13.530     -23.795       7.538
  H      -14.385     -27.366       2.242
  H      -11.477     -25.623       3.665
  H      -11.917     -27.682       5.556
  H      -12.526     -29.289       3.830
  H      -10.088     -28.224       2.287
  H      -11.574     -28.753       0.312
  H      -17.810     -23.960       6.134
  H      -17.835     -24.967       4.703
  H      -10.947     -30.172       1.181
  P      -10.845     -30.520       5.675
  C       -8.330     -30.777       6.273
  O       -9.570     -30.169       6.578
  O      -10.690     -32.084       5.374
  O      -12.179     -30.181       6.250
  H      -11.211     -32.607       6.012
  H       -7.532     -30.211       6.761
  H       -8.145     -30.780       5.195
  H       -8.317     -31.802       6.652
  H      -14.221     -29.553      -2.906
  H      -15.414     -29.986      -1.705
  H      -14.325     -31.200      -2.334

 3  4  5  6  7  8  9  10  11  12  22  25  29  30  31  32 0
 6-311+G(2d,p)
 ****
 33  36  37 0
 6-311+G(2d,p)
 ****
 1  2  13  14  15  16  17  18  19  20  21  23  24  26 0
 3-21G
 ****
 27  28  34  35  38  39  40  41  42  43  44  45  46  47  48 0
 3-21G
 ****


