%nproc=1
%NoSave
%Mem=1900MB
#P OB98/GEN NMR

erre ene a

0 1
  C     1115.675    -899.320    -558.335
  O     1116.537    -898.440    -559.021
  H     1115.212    -900.000    -559.058
  H     1114.879    -898.770    -557.823
  H     1116.240    -899.910    -557.598
  P     1117.238    -897.290    -558.155
  C     1116.750    -894.890    -559.042
  O     1117.539    -896.070    -559.157
  C     1117.315    -893.810    -559.977
  O     1118.678    -893.500    -559.587
  C     1117.395    -894.240    -561.436
  O     1116.150    -894.160    -562.107
  C     1118.407    -893.230    -561.979
  O     1117.762    -891.990    -562.337
  C     1119.359    -893.040    -560.791
  N     1120.629    -893.740    -561.003
  C     1121.588    -893.040    -561.694
  O     1121.405    -891.890    -562.149
  N     1122.771    -893.680    -561.938
  C     1123.036    -894.970    -561.573
  O     1124.115    -895.520    -561.863
  C     1121.989    -895.690    -560.846
  C     1120.834    -895.040    -560.588
  O     1118.682    -897.900    -557.832
  O     1116.515    -896.910    -556.911
  H     1118.737    -898.180    -556.913
  H     1118.497    -891.390    -562.599
  H     1123.482    -893.190    -562.455
  H     1122.166    -896.720    -560.553
  H     1120.032    -895.550    -560.068
  H     1119.569    -891.970    -560.638
  H     1118.905    -893.610    -562.868
  H     1117.827    -895.250    -561.508
  H     1116.719    -892.910    -559.878
  H     1116.797    -894.530    -558.007
  H     1115.714    -895.130    -559.290
  P     1115.460    -895.540    -562.576
  C     1116.287    -895.470    -565.080
  O     1115.207    -895.390    -564.150
  O     1114.017    -895.390    -561.914
  O     1116.244    -896.760    -562.155
  H     1113.754    -894.460    -561.797
  H     1115.912    -895.346    -566.074
  H     1116.761    -896.425    -564.995
  H     1116.998    -894.699    -564.868

 6  7  8  9  10  11  12  13  14  15  16  27  31  32  33  34  35 0
 6-311+G(2d,p)
 ****
 36  37 0
 6-311+G(2d,p)
 ****
 1  2  3  4  5  17  18  19  20  21  22  23  24  25 0
 3-21G
 ****
 26  28  29  30  38  39  40  41  42  43  44  45 0
 3-21G
 ****


