%nproc=1
%NoSave
%Mem=1900MB
#P OB98/GEN NMR

erre ene a

0 1
  C     -231.818     100.007     -30.582
  O     -232.675     100.813     -31.366
  H     -231.266     100.636     -29.880
  H     -232.425      99.296     -30.013
  H     -231.121      99.450     -31.213
  P     -231.993     101.721     -32.500
  C     -234.247     101.708     -33.794
  O     -233.195     102.491     -33.245
  C     -234.792     102.361     -35.064
  O     -235.282     103.690     -34.726
  C     -233.755     102.514     -36.191
  O     -234.405     102.261     -37.441
  C     -233.381     103.987     -36.121
  O     -232.903     104.493     -37.364
  C     -234.701     104.608     -35.671
  N     -233.117     109.341     -36.655
  C     -233.497     108.329     -37.463
  N     -233.960     107.111     -37.116
  C     -234.074     107.011     -35.780
  C     -233.733     107.955     -34.825
  C     -233.215     109.170     -35.314
  N     -232.757     110.179     -34.493
  N     -233.944     107.456     -33.553
  C     -234.383     106.227     -33.740
  N     -234.474     105.911     -35.067
  O     -231.524     100.630     -33.576
  O     -230.860     102.581     -32.046
  H     -232.252     103.863     -37.733
  H     -230.634     100.307     -33.346
  H     -233.409     108.522     -38.533
  H     -234.613     105.519     -32.951
  H     -235.408     104.747     -36.499
  H     -232.599     104.130     -35.366
  H     -232.884     101.859     -36.084
  H     -235.655     101.779     -35.411
  H     -235.057     101.633     -33.058
  H     -232.302     110.966     -34.928
  H     -232.723     110.023     -33.498
  H     -233.872     100.704     -34.014
  P     -233.665     101.273     -38.469
  C     -235.746     100.056     -39.462
  O     -234.665     100.957     -39.681
  O     -233.608      99.888     -37.665
  O     -232.303     101.734     -38.876
  H     -232.800      99.394     -37.906
  H     -236.314      99.954     -40.363
  H     -236.375     100.436     -38.685
  H     -235.361      99.100     -39.174

 6  7  8  9  10  11  12  13  14  15  25  28  32  33  34  35 0
 6-311+G(2d,p)
 ****
 36  39  40 0
 6-311+G(2d,p)
 ****
 1  2  3  4  5  16  17  18  19  20  21  22  23  24 0
 3-21G
 ****
 26  27  29  30  31  37  38  41  42  43  44  45  46  47 0
 3-21G
 ****
 48 0
 3-21G
 ****


