%nproc=1
%NoSave
%Mem=1900MB
#P OB98/GEN NMR

erre ene a

0 1
  C     -484.489     216.196     503.281
  O     -483.995     217.053     502.270
  H     -483.657     215.603     503.679
  H     -485.237     215.516     502.868
  H     -484.929     216.778     504.098
  P     -485.024     218.144     501.681
  C     -483.205     220.039     501.616
  O     -484.120     219.213     500.909
  C     -482.112     220.564     500.685
  O     -481.322     219.441     500.223
  C     -482.650     221.299     499.450
  O     -481.774     222.389     499.162
  C     -482.573     220.257     498.353
  O     -482.508     220.852     497.058
  C     -481.333     219.453     498.776
  N     -481.333     218.092     498.231
  C     -480.933     217.949     496.895
  O     -480.610     218.940     496.237
  N     -480.931     216.698     496.332
  C     -481.375     215.684     497.024
  N     -481.370     214.473     496.399
  C     -481.865     215.800     498.413
  C     -481.796     217.016     498.948
  O     -485.477     218.914     503.016
  O     -486.147     217.564     500.893
  H     -481.886     221.614     497.096
  H     -484.743     219.084     503.633
  H     -482.233     214.929     498.937
  H     -482.126     217.182     499.968
  H     -480.415     219.963     498.445
  H     -483.466     219.613     498.385
  H     -483.673     221.668     499.583
  H     -481.437     221.204     501.266
  H     -481.052     214.439     495.447
  H     -482.751     219.471     502.439
  H     -481.737     213.628     496.815
  H     -483.769     220.871     502.055
  P     -482.367     223.879     499.125
  C     -480.941     224.920     501.010
  O     -481.235     224.913     499.611
  O     -483.701     224.064     499.768
  O     -482.455     224.197     497.546
  H     -483.275     224.708     497.386
  H     -480.178     225.643     501.211
  H     -480.601     223.950     501.308
  H     -481.824     225.172     501.559

 6  7  8  9  10  11  12  13  14  15  16  26  30  31  32  33  35 0
 6-311+G(2d,p)
 ****
 37  38 0
 6-311+G(2d,p)
 ****
 1  2  3  4  5  17  18  19  20  21  22  23  24  25 0
 3-21G
 ****
 27  28  29  34  36  39  40  41  42  43  44  45  46 0
 3-21G
 ****


