%nproc=1
%NoSave
%Mem=1900MB
#P OB98/GEN NMR

erre ene a

0 1
  C     -325.288     107.533     -16.374
  O     -326.039     106.588     -15.638
  H     -324.308     107.105     -16.599
  H     -325.149     108.442     -15.781
  H     -325.794     107.775     -17.313
  P     -327.573     106.946     -15.350
  C     -328.085     104.373     -15.234
  O     -328.238     105.661     -14.651
  C     -328.434     103.294     -14.212
  O     -329.658     103.607     -13.519
  C     -328.703     101.929     -14.826
  O     -327.536     101.307     -15.310
  C     -329.338     101.216     -13.640
  O     -328.341     100.775     -12.708
  C     -330.197     102.350     -13.026
  N     -331.612     102.209     -13.338
  C     -332.332     101.336     -12.514
  O     -331.770     100.751     -11.587
  N     -333.662     101.126     -12.781
  C     -334.230     101.751     -13.764
  N     -335.547     101.493     -13.983
  C     -333.514     102.700     -14.641
  C     -332.221     102.875     -14.376
  O     -328.217     106.925     -16.814
  O     -327.800     108.211     -14.592
  H     -327.825     101.567     -12.463
  H     -328.048     106.103     -17.302
  H     -334.030     103.206     -15.443
  H     -331.622     103.552     -14.970
  H     -330.088     102.366     -11.935
  H     -329.901     100.333     -13.946
  H     -329.463     102.012     -15.613
  H     -327.624     103.250     -13.474
  H     -336.000     100.822     -13.375
  H     -327.068     104.233     -15.612
  H     -336.084     101.895     -14.736
  H     -328.764     104.316     -16.091
  P     -327.529     100.593     -16.746
  C     -324.973     100.745     -16.473
  O     -326.066      99.951     -16.921
  O     -327.969     101.450     -17.884
  O     -328.441      99.297     -16.517
  H     -328.117      98.686     -15.832
  H     -324.057     100.218     -16.640
  H     -325.083     100.947     -15.428
  H     -324.957     101.668     -17.015

 6  7  8  9  10  11  12  13  14  15  16  26  30  31  32  33  35 0
 6-311+G(2d,p)
 ****
 37  38 0
 6-311+G(2d,p)
 ****
 1  2  3  4  5  17  18  19  20  21  22  23  24  25 0
 3-21G
 ****
 27  28  29  34  36  39  40  41  42  43  44  45  46 0
 3-21G
 ****


