%nproc=1
%NoSave
%Mem=1900MB
#P OB98/GEN NMR

erre ene a

0 1
  C      137.901    -266.297      52.952
  O      137.187    -266.346      54.170
  H      137.537    -267.094      52.300
  H      138.971    -266.445      53.123
  H      137.733    -265.337      52.452
  P      137.616    -265.345      55.345
  C      137.018    -266.735      57.441
  O      136.655    -265.660      56.590
  C      135.884    -267.061      58.424
  O      135.407    -265.821      59.021
  C      134.671    -267.747      57.767
  O      134.067    -268.587      58.758
  C      133.783    -266.555      57.463
  O      132.473    -266.953      57.153
  C      133.995    -265.722      58.731
  N      133.566    -264.341      58.571
  C      132.190    -264.108      58.637
  O      131.408    -265.046      58.809
  N      131.728    -262.828      58.476
  C      132.559    -261.873      58.207
  N      132.035    -260.628      58.042
  C      134.018    -262.085      58.068
  C      134.447    -263.330      58.268
  O      137.703    -263.902      54.971
  O      139.036    -265.908      55.833
  H      132.070    -267.451      57.902
  H      139.750    -265.330      55.501
  H      134.668    -261.257      57.821
  H      135.501    -263.584      58.186
  H      133.453    -266.159      59.580
  H      134.158    -266.009      56.589
  H      134.938    -268.332      56.884
  H      136.290    -267.673      59.239
  H      131.032    -260.529      58.136
  H      137.914    -266.428      57.993
  H      132.586    -259.814      57.807
  H      137.257    -267.625      56.849
  P      134.508    -270.110      58.994
  C      132.065    -270.816      59.446
  O      133.413    -270.844      59.906
  O      135.912    -270.269      59.480
  O      134.330    -270.820      57.566
  H      134.992    -271.533      57.481
  H      131.440    -271.337      60.141
  H      132.005    -271.289      58.488
  H      131.737    -269.801      59.364

 6  7  8  9  10  11  12  13  14  15  16  26  30  31  32  33  35 0
 6-311+G(2d,p)
 ****
 37  38 0
 6-311+G(2d,p)
 ****
 1  2  3  4  5  17  18  19  20  21  22  23  24  25 0
 3-21G
 ****
 27  28  29  34  36  39  40  41  42  43  44  45  46 0
 3-21G
 ****


