%nproc=1
%NoSave
%Mem=1900MB
#P OB98/GEN NMR

erre ene a

0 1
  C      709.434     708.785    -348.171
  O      708.319     709.172    -348.937
  P      706.840     708.835    -348.423
  C      706.557     711.115    -347.261
  O      706.052     710.224    -348.258
  C      706.266     712.562    -347.648
  O      706.987     712.922    -348.843
  C      704.800     712.844    -347.959
  O      704.041     712.938    -346.766
  C      704.908     714.143    -348.742
  O      705.030     715.263    -347.858
  C      706.210     713.933    -349.529
  N      705.222     715.634    -354.237
  C      705.242     716.252    -353.038
  N      705.478     715.725    -351.817
  C      705.686     714.401    -351.917
  C      705.663     713.614    -353.065
  C      705.445     714.291    -354.281
  N      705.483     713.676    -355.509
  N      705.896     712.294    -352.750
  C      706.045     712.271    -351.441
  N      705.986     713.531    -350.906
  O      706.762     707.921    -347.246
  O      706.134     708.180    -349.701
  H      704.390     715.142    -347.135
  H      705.855     707.269    -349.488
  H      705.046     717.320    -353.069
  H      706.204     711.381    -350.837
  H      706.822     714.838    -349.551
  H      704.034     714.323    -349.383
  H      704.402     712.058    -348.613
  H      706.617     713.215    -346.838
  H      707.637     710.966    -347.177
  H      705.459     714.275    -356.324
  H      705.938     712.765    -355.583
  H      706.089     710.883    -346.296
  P      702.665     712.122    -346.636
  C      703.469     710.750    -344.626
  O      702.527     711.692    -345.099
  O      702.472     711.027    -347.625
  O      701.546     713.258    -346.786
  H      700.754     712.874    -347.204
  H      703.192     709.743    -344.954
  H      703.476     710.766    -343.531
  H      704.479     710.991    -344.983
  H      710.331     709.092    -348.667
  H      709.436     707.721    -348.056
  H      709.383     709.248    -347.208

 3  4  5  6  7  8  9  10  11  12  22  25  29  30  31  32 0
 6-311+G(2d,p)
 ****
 33  36  37 0
 6-311+G(2d,p)
 ****
 1  2  13  14  15  16  17  18  19  20  21  23  24  26 0
 3-21G
 ****
 27  28  34  35  38  39  40  41  42  43  44  45  46  47  48 0
 3-21G
 ****


