%nproc=1
%NoSave
%Mem=1900MB
#P OB98/GEN NMR

erre ene a

0 1
  C     1412.461    -186.114    1356.033
  O     1411.964    -186.226    1357.344
  H     1412.697    -185.065    1355.826
  H     1411.702    -186.449    1355.309
  H     1413.371    -186.714    1355.918
  P     1411.452    -187.672    1357.811
  C     1413.617    -187.897    1359.226
  O     1412.749    -188.498    1358.269
  C     1413.249    -188.371    1360.634
  O     1413.410    -189.834    1360.720
  C     1414.102    -187.818    1361.746
  O     1413.733    -186.486    1362.098
  C     1413.846    -188.813    1362.867
  O     1412.655    -188.489    1363.587
  C     1413.698    -190.148    1362.102
  N     1414.885    -190.981    1362.237
  C     1414.728    -192.133    1362.990
  O     1413.655    -192.446    1363.529
  N     1415.862    -192.900    1363.155
  C     1417.105    -192.609    1362.675
  O     1418.079    -193.305    1362.935
  C     1417.218    -191.363    1361.901
  C     1416.134    -190.601    1361.730
  O     1411.026    -188.378    1356.439
  O     1410.339    -187.660    1358.803
  H     1410.047    -188.409    1356.371
  H     1411.909    -188.676    1362.970
  H     1415.749    -193.739    1363.693
  H     1418.182    -191.087    1361.536
  H     1416.193    -189.686    1361.165
  H     1412.837    -190.708    1362.471
  H     1414.668    -188.817    1363.569
  H     1415.173    -187.850    1361.458
  H     1412.181    -188.150    1360.808
  H     1413.534    -186.800    1359.209
  H     1414.662    -188.159    1358.989
  P     1414.882    -185.508    1362.654
  C     1414.740    -183.686    1360.752
  O     1415.468    -184.741    1361.363
  O     1416.019    -186.564    1363.045
  O     1414.407    -184.627    1363.762
  H     1415.965    -187.392    1362.517
  H     1415.292    -183.309    1359.917
  H     1414.587    -182.901    1361.462
  H     1413.793    -184.054    1360.417

 6  7  8  9  10  11  12  13  14  15  16  27  31  32  33  34  35 0
 6-311+G(2d,p)
 ****
 36  37 0
 6-311+G(2d,p)
 ****
 1  2  3  4  5  17  18  19  20  21  22  23  24  25 0
 3-21G
 ****
 26  28  29  30  38  39  40  41  42  43  44  45 0
 3-21G
 ****


