%nproc=1
%NoSave
%Mem=1900MB
#P OB98/GEN NMR

erre ene a

0 1
  C     -214.918     146.896      23.673
  O     -215.062     147.832      24.722
  H     -215.697     146.137      23.769
  H     -213.944     146.405      23.739
  H     -215.023     147.382      22.697
  P     -214.172     149.164      24.698
  C     -211.722     149.779      25.228
  O     -212.699     148.749      25.186
  C     -210.331     149.192      24.979
  O     -210.345     148.368      23.792
  C     -209.246     150.234      24.748
  O     -208.860     150.844      25.966
  C     -208.172     149.385      24.084
  O     -207.432     148.639      25.069
  C     -209.028     148.440      23.207
  N     -209.097     148.862      21.808
  C     -208.018     148.523      21.002
  O     -207.025     147.931      21.423
  N     -208.111     148.904      19.682
  C     -209.115     149.644      19.135
  O     -209.124     150.008      17.961
  C     -210.215     150.011      20.043
  C     -210.158     149.605      21.317
  O     -214.750     150.350      25.399
  O     -213.965     149.451      23.134
  H     -207.010     147.896      24.592
  H     -214.580     150.150      22.843
  H     -207.332     148.675      19.090
  H     -211.030     150.601      19.641
  H     -210.957     149.864      22.004
  H     -208.618     147.420      23.233
  H     -207.449     149.978      23.526
  H     -209.591     150.988      24.025
  H     -210.080     148.546      25.831
  H     -211.747     150.247      26.221
  H     -211.966     150.531      24.468
  P     -207.864     152.096      25.973
  C     -205.569     152.693      25.000
  O     -206.554     151.677      25.141
  O     -207.585     152.680      27.320
  O     -208.574     153.167      25.018
  H     -208.956     153.886      25.554
  H     -204.744     152.314      24.434
  H     -205.228     152.996      25.968
  H     -205.994     153.533      24.492

 6  7  8  9  10  11  12  13  14  15  16  26  31  32  33  34  35 0
 6-311+G(2d,p)
 ****
 36  37 0
 6-311+G(2d,p)
 ****
 1  2  3  4  5  17  18  19  20  21  22  23  24  25 0
 3-21G
 ****
 27  28  29  30  38  39  40  41  42  43  44  45 0
 3-21G
 ****


