%nproc=1
%NoSave
%Mem=1900MB
#P OB98/GEN NMR

erre ene a

0 1
  C        9.557    -240.730    -219.466
  O        8.925    -241.923    -219.039
  H       10.615    -240.780    -219.200
  H        9.106    -239.876    -218.956
  H        9.469    -240.611    -220.550
  P        7.448    -242.206    -219.593
  C        5.072    -241.485    -218.841
  O        6.417    -241.726    -218.452
  C        4.383    -240.573    -217.826
  O        4.404    -241.225    -216.526
  C        5.052    -239.199    -217.668
  O        4.032    -238.209    -217.498
  C        5.852    -239.339    -216.386
  O        6.086    -238.084    -215.747
  C        4.973    -240.291    -215.583
  N        6.746    -239.966    -210.877
  C        5.913    -239.114    -211.580
  N        5.499    -238.005    -210.933
  N        5.527    -239.334    -212.806
  C        5.992    -240.501    -213.317
  C        6.823    -241.423    -212.725
  C        7.267    -241.158    -211.373
  O        8.022    -241.860    -210.709
  N        7.097    -242.465    -213.582
  C        6.433    -242.168    -214.682
  N        5.742    -240.992    -214.568
  O        7.341    -243.804    -219.546
  O        7.164    -241.679    -220.961
  H        6.531    -238.269    -214.893
  H        7.248    -244.153    -220.453
  H        7.025    -239.747    -209.933
  H        6.425    -242.763    -215.587
  H        4.154    -239.774    -215.072
  H        6.825    -239.792    -216.607
  H        5.720    -237.798    -209.970
  H        5.678    -238.933    -218.523
  H        4.859    -237.380    -211.414
  H        3.330    -240.469    -218.109
  H        4.541    -242.443    -218.894
  H        5.059    -241.017    -219.831
  P        3.949    -237.051    -218.608
  C        5.576    -235.323    -219.648
  O        5.323    -236.213    -218.570
  O        2.873    -236.032    -217.997
  O        3.534    -237.538    -219.958
  H        2.038    -236.092    -218.500
  H        6.516    -234.836    -219.495
  H        4.798    -234.590    -219.696
  H        5.604    -235.873    -220.565

 6  7  8  9  10  11  12  13  14  15  26  29  33  34 0
 6-311+G(2d,p)
 ****
 36  38  39  40  41 0
 6-311+G(2d,p)
 ****
 1  2  3  4  5  16  17  18  19  20  21  22  23  24  25 0
 3-21G
 ****
 27  28  30  31  32  35  37  42  43  44  45  46  47 0
 3-21G
 ****
 48  49 0
 3-21G
 ****


