%nproc=1
%NoSave
%Mem=1900MB
#P OB98/GEN NMR

erre ene a

0 1
  C      -99.914     588.689     -86.657
  O      -99.764     589.894     -87.388
  P      -99.520     589.780     -88.970
  C     -101.661     590.964     -89.876
  O     -100.978     589.729     -89.637
  C     -102.522     591.333     -88.675
  O     -101.732     591.313     -87.474
  C     -103.117     592.736     -88.755
  O     -104.220     592.768     -89.628
  C     -103.472     592.989     -87.289
  O     -104.775     592.475     -86.982
  C     -102.377     592.203     -86.531
  N     -101.402     593.077     -85.888
  C     -101.801     593.634     -84.664
  O     -102.921     593.376     -84.205
  N     -100.938     594.484     -84.011
  C      -99.789     594.752     -84.543
  N      -98.972     595.598     -83.851
  C      -99.342     594.210     -85.837
  C     -100.190     593.396     -86.460
  O      -98.978     588.290     -89.143
  O      -98.583     590.798     -89.531
  H     -104.737     591.517     -87.197
  H      -98.422     588.213     -89.945
  H      -98.370     594.477     -86.239
  H      -99.946     592.949     -87.411
  H     -102.826     591.567     -85.752
  H     -103.491     594.055     -87.049
  H     -102.350     593.462     -89.074
  H     -103.321     590.579     -88.576
  H      -99.311     595.965     -82.966
  H     -102.298     590.855     -90.752
  H      -98.048     595.857     -84.169
  H     -100.920     591.743     -90.080
  P     -104.099     593.648     -90.955
  C     -104.920     591.540     -92.167
  O     -103.965     592.575     -92.150
  O     -102.608     594.218     -90.848
  O     -105.110     594.729     -91.152
  H     -102.441     594.859     -91.565
  H     -104.813     590.978     -93.101
  H     -105.932     591.935     -92.101
  H     -104.739     590.853     -91.329
  H     -100.069     588.916     -85.623
  H      -99.030     588.095     -86.763
  H     -100.756     588.146     -87.033

 3  4  5  6  7  8  9  10  11  12  13  21  23  27  28  29  30  32 0
 6-311+G(2d,p)
 ****
 34  35 0
 6-311+G(2d,p)
 ****
 1  2  14  15  16  17  18  19  20  22  24  25  26 0
 3-21G
 ****
 31  33  36  37  38  39  40  41  42  43  44  45  46 0
 3-21G
 ****


