%nproc=1
%NoSave
%Mem=1900MB
#P OB98/GEN NMR

erre ene a

0 1
  C      414.307     622.689    -212.459
  O      413.568     623.308    -211.425
  H      414.834     623.443    -213.054
  H      415.052     622.021    -212.007
  H      413.646     622.096    -213.096
  P      412.413     624.329    -211.880
  C      412.819     626.896    -211.858
  O      413.168     625.636    -212.419
  C      413.774     627.229    -210.709
  O      415.126     626.884    -211.069
  C      413.814     628.704    -210.334
  O      412.730     629.076    -209.490
  C      415.135     628.771    -209.587
  O      414.972     628.225    -208.266
  C      416.014     627.841    -210.438
  N      420.180     630.679    -211.400
  C      419.693     630.152    -210.260
  N      418.578     629.408    -210.081
  C      417.937     629.233    -211.253
  C      418.306     629.726    -212.487
  C      419.495     630.472    -212.555
  N      419.981     631.032    -213.710
  N      417.375     629.370    -213.458
  C      416.484     628.656    -212.807
  N      416.768     628.554    -211.473
  O      411.782     624.817    -210.487
  O      411.382     623.771    -212.809
  H      414.356     628.817    -207.791
  H      410.885     625.179    -210.633
  H      420.281     630.338    -209.360
  H      415.609     628.191    -213.254
  H      416.738     627.280    -209.836
  H      415.511     629.784    -209.470
  H      413.868     629.351    -211.218
  H      413.488     626.612    -209.846
  H      411.793     626.842    -211.473
  H      420.735     631.702    -213.612
  H      419.405     631.013    -214.536
  H      412.880     627.669    -212.637
  P      412.361     630.637    -209.405
  C      412.686     631.736    -207.072
  O      413.302     631.250    -208.257
  O      410.909     630.630    -208.738
  O      412.388     631.360    -210.720
  H      410.406     631.428    -208.992
  H      413.437     632.110    -206.407
  H      412.152     630.941    -206.596
  H      412.006     632.523    -207.321

 6  7  8  9  10  11  12  13  14  15  25  28  32  33  34  35 0
 6-311+G(2d,p)
 ****
 36  39  40 0
 6-311+G(2d,p)
 ****
 1  2  3  4  5  16  17  18  19  20  21  22  23  24 0
 3-21G
 ****
 26  27  29  30  31  37  38  41  42  43  44  45  46  47 0
 3-21G
 ****
 48 0
 3-21G
 ****


