%nproc=1
%NoSave
%Mem=1900MB
#P OB98/GEN NMR

erre ene a

0 1
  C      125.676     -30.213      89.472
  O      124.662     -29.947      88.528
  H      125.800     -31.295      89.556
  H      125.386     -29.814      90.448
  H      126.628     -29.775      89.164
  P      124.520     -28.463      87.947
  C      122.915     -26.473      88.290
  O      123.320     -27.755      88.742
  C      121.626     -26.022      88.988
  O      120.523     -26.851      88.551
  C      121.747     -26.206      90.502
  O      120.949     -25.271      91.223
  C      121.193     -27.605      90.717
  O      120.746     -27.829      92.051
  C      120.083     -27.642      89.669
  N      118.051     -32.161      90.855
  C      118.308     -31.078      91.672
  N      118.005     -31.226      92.980
  N      118.832     -29.958      91.245
  C      119.153     -29.979      89.930
  C      118.970     -31.000      89.026
  C      118.353     -32.219      89.502
  O      118.118     -33.219      88.827
  N      119.439     -30.659      87.782
  C      119.912     -29.439      87.933
  N      119.749     -28.977      89.217
  O      123.888     -28.684      86.490
  O      125.789     -27.669      87.877
  H      120.499     -28.770      92.124
  H      124.109     -27.937      85.907
  H      117.632     -32.993      91.232
  H      120.373     -28.848      87.152
  H      119.164     -27.188      90.063
  H      121.992     -28.325      90.519
  H      117.769     -32.121      93.381
  H      122.780     -26.127      90.844
  H      118.450     -30.571      93.629
  H      121.382     -24.992      88.705
  H      122.748     -26.547      87.210
  H      123.714     -25.745      88.449
  P      121.660     -24.430      92.387
  C      122.774     -25.029      94.685
  O      121.958     -25.433      93.601
  O      120.492     -23.486      92.934
  O      122.844     -23.651      91.926
  H      120.626     -22.571      92.626
  H      122.854     -25.831      95.389
  H      122.337     -24.177      95.162
  H      123.748     -24.774      94.323

 6  7  8  9  10  11  12  13  14  15  26  29  33  34 0
 6-311+G(2d,p)
 ****
 36  38  39  40  41 0
 6-311+G(2d,p)
 ****
 1  2  3  4  5  16  17  18  19  20  21  22  23  24  25 0
 3-21G
 ****
 27  28  30  31  32  35  37  42  43  44  45  46  47 0
 3-21G
 ****
 48  49 0
 3-21G
 ****


