%nproc=1
%NoSave
%Mem=1900MB
#P OB98/GEN NMR

erre ene a

0 1
  C      -47.987      96.530     -80.099
  O      -48.024      96.616     -81.508
  H      -47.879      95.480     -79.813
  H      -48.916      96.916     -79.675
  H      -47.135      97.092     -79.707
  P      -48.183      98.081     -82.140
  C      -46.661      97.972     -84.239
  O      -47.985      97.908     -83.728
  C      -45.897      96.691     -83.899
  O      -46.643      95.549     -84.403
  C      -44.488      96.629     -84.509
  O      -43.608      96.001     -83.571
  C      -44.672      95.712     -85.705
  O      -43.452      95.098     -86.104
  C      -45.718      94.744     -85.159
  N      -45.098      91.162     -88.638
  C      -44.228      91.637     -87.675
  N      -42.999      91.078     -87.633
  N      -44.535      92.585     -86.829
  C      -45.805      93.037     -86.969
  C      -46.756      92.657     -87.883
  C      -46.397      91.622     -88.830
  O      -47.115      91.177     -89.719
  N      -47.912      93.381     -87.722
  C      -47.660      94.192     -86.711
  N      -46.394      94.018     -86.219
  O      -46.845      98.832     -81.684
  O      -49.411      98.826     -81.739
  H      -43.611      94.636     -86.954
  H      -47.002      99.790     -81.579
  H      -44.806      90.438     -89.271
  H      -48.348      94.919     -86.302
  H      -45.284      93.994     -84.486
  H      -45.069      96.276     -86.556
  H      -42.703      90.322     -88.231
  H      -44.090      97.606     -84.789
  H      -42.350      91.403     -86.925
  H      -45.859      96.585     -82.809
  H      -46.147      98.830     -83.793
  H      -46.701      98.101     -85.324
  P      -42.793      96.949     -82.567
  C      -42.232      95.496     -80.491
  O      -41.775      96.046     -81.717
  O      -43.904      97.368     -81.492
  O      -42.195      98.150     -83.221
  H      -44.148      98.303     -81.616
  H      -41.447      94.923     -80.043
  H      -43.075      94.863     -80.676
  H      -42.518      96.287     -79.830

 6  7  8  9  10  11  12  13  14  15  26  29  33  34 0
 6-311+G(2d,p)
 ****
 36  38  39  40  41 0
 6-311+G(2d,p)
 ****
 1  2  3  4  5  16  17  18  19  20  21  22  23  24  25 0
 3-21G
 ****
 27  28  30  31  32  35  37  42  43  44  45  46  47 0
 3-21G
 ****
 48  49 0
 3-21G
 ****


