%nproc=1
%NoSave
%Mem=1900MB
#P OB98/GEN NMR

erre ene a

0 1
  C      286.448     587.134      -7.336
  O      286.617     587.172      -5.923
  P      286.358     588.558      -5.173
  C      288.785     588.920      -4.307
  O      287.430     588.643      -3.978
  C      289.742     588.025      -3.498
  O      289.515     588.283      -2.082
  C      289.572     586.529      -3.738
  O      290.873     585.949      -3.640
  C      288.695     586.122      -2.558
  O      288.694     584.728      -2.308
  C      289.284     587.005      -1.470
  N      288.996     587.120       3.657
  C      290.055     587.046       2.803
  N      290.053     587.027       1.452
  C      288.788     587.099       0.992
  C      287.622     587.149       1.711
  C      287.751     587.168       3.125
  N      286.682     587.229       3.972
  N      286.522     587.201       0.880
  C      287.032     587.166      -0.334
  N      288.402     587.126      -0.328
  O      284.975     588.321      -4.409
  O      286.299     589.764      -6.065
  H      288.284     584.249      -3.041
  H      284.424     589.112      -4.426
  H      291.036     586.984       3.289
  H      286.448     587.154      -1.240
  H      290.243     586.624      -1.091
  H      287.658     586.405      -2.779
  H      289.149     586.291      -4.723
  H      290.773     588.345      -3.719
  H      289.000     589.975      -4.072
  H      286.863     587.020       4.950
  H      285.752     587.064       3.577
  H      288.940     588.778      -5.379
  P      291.576     585.340      -4.946
  C      291.602     582.968      -3.987
  O      292.384     584.063      -4.398
  O      292.748     586.398      -5.187
  O      290.664     585.137      -6.120
  H      293.277     586.545      -4.378
  H      292.273     582.123      -3.731
  H      290.926     582.630      -4.794
  H      291.024     583.214      -3.093
  H      286.655     586.147      -7.694
  H      287.121     587.828      -7.795
  H      285.441     587.399      -7.582

 3  4  5  6  7  8  9  10  11  12  22  25  29  30  31  32 0
 6-311+G(2d,p)
 ****
 33  36  37 0
 6-311+G(2d,p)
 ****
 1  2  13  14  15  16  17  18  19  20  21  23  24  26 0
 3-21G
 ****
 27  28  34  35  38  39  40  41  42  43  44  45  46  47  48 0
 3-21G
 ****


