%nproc=1
%NoSave
%Mem=1900MB
#P OB98/GEN NMR

erre ene a

0 1
  C     -946.546     436.296     903.809
  O     -945.379     435.498     903.729
  P     -944.308     435.748     902.556
  C     -941.773     435.363     902.297
  O     -942.881     435.346     903.183
  C     -940.510     434.808     903.010
  O     -940.080     435.717     904.038
  C     -940.701     433.458     903.676
  O     -940.704     432.418     902.709
  C     -939.537     433.434     904.632
  O     -938.343     433.023     903.985
  C     -939.436     434.926     905.058
  N     -940.014     435.163     906.381
  C     -939.112     435.159     907.458
  O     -937.908     434.927     907.261
  N     -939.594     435.368     908.731
  C     -940.854     435.523     908.919
  N     -941.275     435.735     910.204
  C     -941.842     435.516     907.830
  C     -941.353     435.321     906.617
  O     -944.366     437.092     901.914
  O     -944.609     434.543     901.545
  H     -937.605     433.159     904.624
  H     -945.433     434.694     901.029
  H     -942.898     435.666     908.036
  H     -942.018     435.298     905.721
  H     -938.398     435.243     905.095
  H     -939.716     432.752     905.492
  H     -941.656     433.453     904.254
  H     -939.706     434.749     902.251
  H     -940.565     435.700     910.925
  H     -941.592     436.402     902.006
  H     -942.248     435.827     910.471
  H     -942.001     434.766     901.403
  P     -941.593     431.101     902.962
  C     -943.064     429.511     901.572
  O     -942.214     430.659     901.562
  O     -942.575     431.191     904.091
  O     -940.489     429.960     903.230
  H     -940.794     429.426     904.013
  H     -943.659     429.513     900.652
  H     -943.714     429.510     902.435
  H     -942.436     428.616     901.583
  H     -947.134     435.985     904.647
  H     -947.117     436.183     902.911
  H     -946.269     437.322     903.929

 3  4  5  6  7  8  9  10  11  12  13  23  27  28  29  30  32 0
 6-311+G(2d,p)
 ****
 34  35 0
 6-311+G(2d,p)
 ****
 1  2  14  15  16  17  18  19  20  21  22  24  25  26 0
 3-21G
 ****
 31  33  36  37  38  39  40  41  42  43  44  45  46 0
 3-21G
 ****


