%nproc=1
%NoSave
%Mem=1900MB
#P OB98/GEN NMR

erre ene a

0 1
  C      452.660       5.898     547.786
  O      453.597       6.824     548.298
  H      451.677       6.375     547.754
  H      452.605       5.024     548.439
  H      452.936       5.589     546.773
  P      455.148       6.422     548.216
  C      455.119       4.977     550.378
  O      455.293       5.010     548.969
  C      455.165       3.533     550.876
  O      453.848       2.938     550.690
  C      456.175       2.648     550.134
  O      456.741       1.726     551.069
  C      455.306       1.886     549.150
  O      455.872       0.661     548.709
  C      454.028       1.702     549.975
  N      452.864       1.397     549.148
  C      452.487       0.061     549.042
  O      453.010      -0.866     549.655
  N      451.450      -0.191     548.179
  C      450.795       0.729     547.414
  O      449.889       0.438     546.644
  C      451.243       2.123     547.564
  C      452.243       2.385     548.411
  O      455.837       7.455     549.225
  O      455.751       6.463     546.853
  H      456.099       8.268     548.755
  H      455.175       0.176     548.218
  H      451.167      -1.152     548.088
  H      450.752       2.878     546.967
  H      452.612       3.401     548.531
  H      454.169       0.909     550.719
  H      455.111       2.507     548.267
  H      456.974       3.206     549.631
  H      455.367       3.538     551.954
  H      454.147       5.412     550.636
  H      455.908       5.569     550.854
  P      458.092       2.167     551.815
  C      459.873       1.007     550.281
  O      459.221       2.203     550.674
  O      458.421       0.851     552.659
  O      457.934       3.415     552.619
  H      458.178       0.032     552.198
  H      460.588       1.226     549.516
  H      459.150       0.313     549.906
  H      460.373       0.580     551.125

 6  7  8  9  10  11  12  13  14  15  16  27  31  32  33  34  35 0
 6-311+G(2d,p)
 ****
 36  37 0
 6-311+G(2d,p)
 ****
 1  2  3  4  5  17  18  19  20  21  22  23  24  25 0
 3-21G
 ****
 26  28  29  30  38  39  40  41  42  43  44  45 0
 3-21G
 ****


