%nproc=1
%NoSave
%Mem=1900MB
#P OB98/GEN NMR

erre ene a

0 1
  C      -17.004      16.433    -218.086
  O      -16.767      17.803    -217.815
  H      -17.756      16.357    -218.877
  H      -17.376      15.933    -217.190
  H      -16.082      15.949    -218.427
  P      -15.655      18.129    -216.706
  C      -13.311      17.483    -217.659
  O      -14.313      18.483    -217.517
  C      -12.254      17.935    -218.673
  O      -12.897      18.112    -219.973
  C      -11.594      19.280    -218.313
  O      -10.247      19.275    -218.830
  C      -12.432      20.262    -219.117
  O      -11.772      21.501    -219.231
  C      -12.613      19.457    -220.402
  N      -14.245      23.508    -223.047
  C      -13.093      23.271    -222.375
  N      -12.731      22.161    -221.701
  C      -13.689      21.219    -221.790
  C      -14.913      21.315    -222.434
  C      -15.186      22.530    -223.084
  N      -16.365      22.786    -223.749
  N      -15.640      20.146    -222.274
  C      -14.865      19.361    -221.553
  N      -13.677      19.965    -221.239
  O      -15.343      16.695    -216.066
  O      -16.047      19.134    -215.674
  H      -12.117      22.144    -218.581
  H      -15.911      16.553    -215.280
  H      -12.366      24.082    -222.378
  H      -15.107      18.355    -221.223
  H      -11.696      19.435    -221.010
  H      -13.395      20.446    -218.628
  H      -11.573      19.482    -217.240
  H      -11.504      17.142    -218.796
  H      -13.787      16.558    -218.004
  H      -12.834      17.306    -216.691
  H      -16.492      23.696    -224.159
  H      -17.085      22.084    -223.752
  P       -9.067      19.925    -217.948
  C       -8.526      17.593    -216.913
  O       -8.029      18.796    -217.483
  O       -9.830      20.273    -216.580
  O       -8.445      21.162    -218.520
  H       -9.595      21.176    -216.292
  H       -7.707      16.953    -216.660
  H       -9.160      17.099    -217.619
  H       -9.086      17.821    -216.030

 6  7  8  9  10  11  12  13  14  15  25  28  32  33  34  35 0
 6-311+G(2d,p)
 ****
 36  37  40 0
 6-311+G(2d,p)
 ****
 1  2  3  4  5  16  17  18  19  20  21  22  23  24 0
 3-21G
 ****
 26  27  29  30  31  38  39 41  42  43  44  45  46  47  48 0
 3-21G
 ****


