%nproc=1
%NoSave
%Mem=1900MB
#P OB98/GEN NMR

erre ene a

0 1
  C     -207.557    -463.650    -168.757
  O     -208.625    -464.560    -168.597
  H     -207.754    -462.766    -168.147
  H     -207.490    -463.345    -169.804
  H     -206.612    -464.097    -168.436
  P     -208.407    -466.047    -169.151
  C     -209.687    -467.788    -167.721
  O     -209.740    -466.879    -168.809
  C     -209.908    -467.048    -166.401
  O     -211.141    -466.290    -166.492
  C     -210.019    -467.976    -165.182
  O     -209.365    -467.360    -164.071
  C     -211.514    -468.041    -164.925
  O     -211.823    -468.352    -163.568
  C     -211.955    -466.648    -165.360
  N     -216.611    -466.225    -163.479
  C     -215.383    -466.113    -162.857
  N     -215.396    -465.855    -161.531
  N     -214.242    -466.242    -163.480
  C     -214.382    -466.460    -164.811
  C     -215.537    -466.598    -165.541
  C     -216.795    -466.481    -164.835
  O     -217.913    -466.593    -165.325
  N     -215.262    -466.848    -166.863
  C     -213.943    -466.862    -166.928
  N     -213.365    -466.626    -165.710
  O     -207.319    -466.654    -168.148
  O     -207.953    -466.143    -170.570
  H     -212.795    -468.270    -163.461
  H     -206.494    -466.848    -168.632
  H     -217.460    -466.131    -162.948
  H     -213.363    -467.045    -167.820
  H     -211.804    -465.898    -164.575
  H     -211.965    -468.812    -165.560
  H     -216.236    -465.696    -161.000
  H     -209.588    -468.965    -165.354
  H     -214.508    -465.732    -161.060
  H     -209.098    -466.323    -166.266
  H     -208.704    -468.270    -167.707
  H     -210.459    -468.554    -167.850
  P     -208.188    -468.194    -163.366
  C     -206.957    -466.099    -162.471
  O     -207.608    -467.318    -162.151
  O     -207.014    -468.157    -164.452
  O     -208.566    -469.596    -163.019
  H     -206.913    -469.035    -164.864
  H     -206.624    -465.625    -161.571
  H     -207.640    -465.453    -162.982
  H     -206.115    -466.299    -163.101

 6  7  8  9  10  11  12  13  14  15  26  29  33  34 0
 6-311+G(2d,p)
 ****
 36  38  39  40  41 0
 6-311+G(2d,p)
 ****
 1  2  3  4  5  16  17  18  19  20  21  22  23  24  25 0
 3-21G
 ****
 27  28  30  31  32  35  37  42  43  44  45  46  47 0
 3-21G
 ****
 48  49 0
 3-21G
 ****


