%nproc=1
%NoSave
%Mem=1900MB
#P OB98/GEN NMR

erre ene a

0 1
  C       17.807    -369.052     237.954
  O       18.718    -368.180     237.320
  H       18.003    -369.039     239.035
  H       17.953    -370.073     237.594
  H       16.778    -368.736     237.778
  P       18.567    -367.907     235.749
  C       19.788    -369.996     234.852
  O       18.542    -369.336     235.014
  C       19.588    -371.398     234.267
  O       20.880    -372.054     234.185
  C       18.662    -372.291     235.097
  O       17.873    -373.095     234.219
  C       19.618    -373.160     235.886
  O       19.034    -374.408     236.255
  C       20.791    -373.301     234.906
  N       24.935    -376.200     234.901
  C       23.899    -376.113     233.974
  N       23.975    -376.937     232.902
  N       22.888    -375.302     234.102
  C       22.961    -374.521     235.210
  C       23.925    -374.504     236.190
  C       25.031    -375.430     236.051
  O       25.966    -375.562     236.839
  N       23.628    -373.584     237.169
  C       22.487    -373.047     236.776
  N       22.036    -373.587     235.603
  O       19.555    -366.929     235.182
  O       17.066    -367.386     235.578
  H       18.710    -374.832     235.434
  H       17.044    -366.418     235.431
  H       25.682    -376.851     234.751
  H       21.952    -372.273     237.312
  H       20.630    -374.109     234.179
  H       19.926    -372.642     236.802
  H       24.744    -377.575     232.736
  H       18.000    -371.707     235.746
  H       23.243    -376.878     232.202
  H       19.221    -371.298     233.238
  H       20.266    -370.071     235.835
  H       20.431    -369.400     234.188
  P       16.414    -372.592     233.790
  C       14.988    -374.301     235.097
  O       15.374    -372.940     234.975
  O       15.962    -373.007     232.426
  O       16.542    -371.001     233.893
  H       15.992    -370.595     233.196
  H       14.302    -374.405     235.911
  H       15.854    -374.902     235.281
  H       14.518    -374.621     234.191

 6  7  8  9  10  11  12  13  14  15  26  29  33  34 0
 6-311+G(2d,p)
 ****
 36  38  39  40  41 0
 6-311+G(2d,p)
 ****
 1  2  3  4  5  16  17  18  19  20  21  22  23  24  25 0
 3-21G
 ****
 27  28  30  31  32  35  37  42  43  44  45  46  47 0
 3-21G
 ****
 48  49 0
 3-21G
 ****


