%nproc=1
%NoSave
%Mem=1900MB
#P OB98/GEN NMR

erre ene a

0 1
  C      -84.005     235.808      66.530
  O      -83.700     236.592      65.388
  P      -84.722     237.782      65.006
  C      -82.764     239.513      64.715
  O      -83.963     239.144      65.378
  C      -81.781     240.146      65.713
  O      -81.354     239.167      66.671
  C      -80.502     240.693      65.087
  O      -80.719     241.930      64.439
  C      -79.580     240.755      66.295
  O      -79.860     241.943      67.068
  C      -80.002     239.498      67.078
  N      -79.090     238.376      66.908
  C      -78.368     237.976      68.027
  O      -78.472     238.521      69.116
  N      -77.497     236.927      67.835
  C      -77.240     236.300      66.652
  O      -76.410     235.404      66.521
  C      -78.007     236.779      65.487
  C      -78.883     237.782      65.668
  O      -85.818     237.603      66.155
  O      -85.237     237.685      63.609
  H      -85.444     237.195      66.966
  H      -80.801     241.873      67.341
  H      -76.980     236.608      68.641
  H      -77.826     236.326      64.530
  H      -79.446     238.157      64.828
  H      -80.068     239.720      68.165
  H      -78.522     240.779      66.026
  H      -80.102     239.968      64.354
  H      -82.306     240.943      66.261
  H      -83.004     240.241      63.934
  H      -82.310     238.620      64.254
  P      -80.290     242.029      62.890
  C      -82.384     243.331      62.001
  O      -81.660     242.110      62.052
  O      -79.758     240.540      62.626
  O      -79.287     243.099      62.608
  H      -80.325     239.858      63.033
  H      -83.049     243.305      61.137
  H      -81.734     244.192      61.924
  H      -83.001     243.422      62.925
  H      -83.249     235.063      66.663
  H      -84.954     235.333      66.393
  H      -84.042     236.437      67.395

 3  4  5  6  7  8  9  10  11  12  13  24  28  29  30  31  32 0
 6-311+G(2d,p)
 ****
 33  34 0
 6-311+G(2d,p)
 ****
 1  2  14  15  16  17  18  19  20  21  22  23  25  26  27 0
 3-21G
 ****
 35  36  37  38  39  40  41  42  43  44  45 0
 3-21G
 ****


