%nproc=1
%NoSave
%Mem=1900MB
#P OB98/GEN NMR

erre ene a

0 1
  C       85.918     449.726    -138.690
  O       86.866     450.575    -139.304
  H       86.208     449.529    -137.653
  H       84.946     450.227    -138.692
  H       85.832     448.785    -139.241
  P       88.363     450.007    -139.430
  C       88.164     449.441    -141.954
  O       88.341     448.947    -140.635
  C       89.397     449.140    -142.803
  O       89.780     447.755    -142.650
  C       89.210     449.353    -144.301
  O       89.321     450.722    -144.653
  C       90.373     448.539    -144.849
  O       91.594     449.293    -144.729
  C       90.407     447.338    -143.893
  N       90.932     442.604    -145.775
  C       91.831     443.489    -145.280
  N       91.613     444.719    -144.778
  C       90.301     445.013    -144.801
  C       89.265     444.211    -145.248
  C       89.623     442.948    -145.765
  N       88.697     442.083    -146.328
  N       88.049     444.859    -145.120
  C       88.355     446.040    -144.622
  N       89.697     446.175    -144.406
  O       88.503     449.091    -138.118
  O       89.432     451.045    -139.494
  H       91.563     449.748    -143.866
  H       88.953     449.601    -137.419
  H       92.868     443.157    -145.299
  H       87.642     446.824    -144.412
  H       91.428     447.025    -143.648
  H       90.255     448.273    -145.907
  H       88.268     448.914    -144.656
  H       90.224     449.754    -142.423
  H       88.007     450.525    -141.922
  H       89.091     441.480    -147.047
  H       87.796     442.504    -146.526
  H       87.278     448.967    -142.388
  P       88.729     451.177    -146.074
  C       86.413     451.887    -145.168
  O       87.136     450.980    -145.990
  O       89.210     449.996    -147.055
  O       89.197     452.506    -146.564
  H       89.722     450.374    -147.792
  H       85.371     451.646    -145.201
  H       86.560     452.885    -145.524
  H       86.764     451.812    -144.160

 6  7  8  9  10  11  12  13  14  15  25  28  32  33  34  35 0
 6-311+G(2d,p)
 ****
 36  39  40 0
 6-311+G(2d,p)
 ****
 1  2  3  4  5  16  17  18  19  20  21  22  23  24 0
 3-21G
 ****
 26  27  29  30  31  37  38  41  42  43  44  45  46  47  48 0
 3-21G
 ****


