%nproc=1
%NoSave
%Mem=1900MB
#P OB98/GEN NMR

erre ene a

0 1
  C       27.753     -25.782       2.821
  O       28.406     -26.060       4.037
  P       28.008     -25.395       5.430
  C       27.913     -22.981       6.428
  O       28.283     -23.818       5.340
  C       28.139     -21.501       6.086
  O       27.262     -21.142       4.987
  C       27.774     -20.586       7.266
  O       28.685     -19.514       7.473
  C       26.323     -20.222       6.978
  O       25.886     -19.052       7.651
  C       26.317     -20.158       5.453
  N       21.757     -18.271       4.247
  C       22.889     -17.604       4.670
  N       22.729     -16.300       4.982
  N       24.056     -18.177       4.807
  C       24.037     -19.509       4.568
  C       22.978     -20.277       4.142
  C       21.703     -19.625       3.963
  O       20.646     -20.199       3.700
  N       23.309     -21.605       4.069
  C       24.559     -21.647       4.482
  N       25.034     -20.403       4.828
  O       28.442     -26.115       6.665
  O       26.394     -25.457       5.370
  H       24.947     -18.915       7.423
  H       26.079     -25.599       6.285
  H       20.865     -17.790       4.239
  H       25.155     -22.547       4.580
  H       26.646     -19.181       5.093
  H       25.700     -21.048       7.337
  H       21.815     -15.871       5.028
  H       27.819     -21.140       8.209
  H       23.467     -15.860       5.524
  H       29.172     -21.363       5.749
  H       28.547     -23.273       7.272
  H       26.873     -23.157       6.713
  P       29.122     -18.822       8.842
  C       27.939     -17.503      10.698
  O       27.940     -17.857       9.328
  O       30.276     -17.792       8.438
  O       29.617     -19.766       9.889
  H       30.974     -17.797       9.121
  H       26.961     -17.088      10.953
  H       28.705     -16.745      10.881
  H       28.129     -18.380      11.326
  H       28.204     -26.352       2.036
  H       27.840     -24.739       2.600
  H       26.719     -26.045       2.903

 3  4  5  6  7  8  9  10  11  12  23  26  30  31 0
 6-311+G(2d,p)
 ****
 33  35  36  37  38 0
 6-311+G(2d,p)
 ****
 1  2  13  14  15  16  17  18  19  20  21  22  24  25 0
 3-21G
 ****
 27  28  29  32  34  39  40  41  42  43  44  45  46  47  48  49 0
 3-21G
 ****


