%nproc=1
%NoSave
%Mem=1900MB
#P OB98/GEN NMR

erre ene a

0 1
  C     -613.199    -899.201    -896.370
  O     -612.034    -898.401    -896.580
  P     -611.857    -897.691    -898.010
  C     -611.284    -895.191    -897.310
  O     -612.202    -896.131    -897.860
  C     -611.874    -894.621    -896.000
  O     -612.136    -895.661    -895.060
  C     -610.974    -893.601    -895.330
  O     -611.165    -892.271    -895.840
  C     -611.371    -893.741    -893.860
  O     -612.628    -893.041    -893.620
  C     -611.609    -895.271    -893.760
  N     -610.381    -896.111    -893.460
  C     -609.844    -896.121    -892.170
  O     -610.297    -895.491    -891.210
  N     -608.765    -896.961    -891.960
  C     -608.272    -897.861    -892.860
  O     -607.334    -898.611    -892.620
  C     -608.956    -897.921    -894.170
  C     -609.941    -897.071    -894.380
  O     -613.097    -898.261    -898.880
  O     -610.563    -897.951    -898.680
  H     -613.226    -893.331    -894.330
  H     -612.767    -898.791    -899.640
  H     -608.316    -896.931    -891.080
  H     -608.633    -898.661    -894.880
  H     -610.484    -897.101    -895.350
  H     -612.332    -895.511    -892.970
  H     -610.636    -893.271    -893.190
  H     -609.917    -893.891    -895.410
  H     -612.854    -894.131    -896.240
  H     -611.066    -894.391    -897.990
  H     -610.333    -895.701    -897.100
  P     -610.295    -891.791    -897.090
  C     -611.983    -891.921    -899.080
  O     -610.909    -892.591    -898.360
  O     -608.796    -891.871    -896.940
  O     -610.813    -890.301    -897.350
  H     -610.201    -889.651    -896.910
  H     -612.168    -892.471    -900.000
  H     -611.663    -890.911    -899.320
  H     -612.874    -891.931    -898.440
  H     -613.180    -899.606    -895.380
  H     -613.216    -900.000    -897.082
  H     -614.073    -898.597    -896.491

 3  4  5  6  7  8  9  10  11  12  13  23  28  29  30  31  32 0
 6-311+G(2d,p)
 ****
 33  34 0
 6-311+G(2d,p)
 ****
 1  2  14  15  16  17  18  19  20  21  22  24  25  26  27 0
 3-21G
 ****
 35  36  37  38  39  40  41  42  43  44  45 0
 3-21G
 ****


