%nproc=1
%NoSave
%Mem=1900MB
#P OB98/GEN NMR

erre ene a

0 1
  C      -82.098    -139.928    -847.531
  O      -81.658    -140.786    -848.562
  H      -82.663    -139.105    -847.972
  H      -81.242    -139.513    -846.989
  H      -82.746    -140.476    -846.838
  P      -80.702    -142.003    -848.126
  C      -80.201    -144.256    -849.350
  O      -81.114    -143.186    -849.134
  C      -80.923    -145.437    -849.984
  O      -81.891    -145.992    -849.072
  C      -81.716    -145.096    -851.245
  O      -80.897    -144.948    -852.398
  C      -82.604    -146.324    -851.335
  O      -81.839    -147.447    -851.805
  C      -83.011    -146.499    -849.854
  N      -84.246    -145.791    -849.509
  C      -85.391    -146.575    -849.337
  O      -85.346    -147.798    -849.480
  N      -86.584    -145.945    -849.045
  C      -86.617    -144.656    -848.913
  N      -87.826    -144.096    -848.626
  C      -85.431    -143.793    -849.070
  C      -84.290    -144.413    -849.366
  O      -81.335    -142.491    -846.733
  O      -79.241    -141.705    -848.066
  H      -82.454    -148.200    -851.863
  H      -80.907    -143.334    -846.450
  H      -85.523    -142.724    -848.965
  H      -83.380    -143.846    -849.490
  H      -83.132    -147.557    -849.602
  H      -83.445    -146.198    -852.024
  H      -82.341    -144.209    -851.103
  H      -80.172    -146.216    -850.183
  H      -88.632    -144.705    -848.585
  H      -79.774    -144.546    -848.382
  H      -87.987    -143.093    -848.651
  H      -79.387    -143.929    -850.011
  P      -81.612    -144.451    -853.749
  C      -80.722    -143.478    -855.992
  O      -80.503    -143.674    -854.606
  O      -82.574    -143.278    -853.241
  O      -82.366    -145.514    -854.491
  H      -83.397    -143.245    -853.765
  H      -79.894    -142.947    -856.412
  H      -81.618    -142.911    -856.135
  H      -80.819    -144.428    -856.475

 6  7  8  9  10  11  12  13  14  15  16  26  30  31  32  33  35 0
 6-311+G(2d,p)
 ****
 37  38 0
 6-311+G(2d,p)
 ****
 1  2  3  4  5  17  18  19  20  21  22  23  24  25 0
 3-21G
 ****
 27  28  29  34  36  39  40  41  42  43  44  45  46 0
 3-21G
 ****


