%nproc=1
%NoSave
%Mem=1900MB
#P OB98/GEN NMR

erre ene a

0 1
  C      584.368    -526.688     775.655
  O      584.957    -527.910     775.203
  P      584.094    -528.799     774.177
  C      585.702    -528.500     772.159
  O      584.402    -528.278     772.694
  C      585.842    -527.781     770.818
  O      585.995    -526.357     770.982
  C      587.067    -528.224     770.025
  O      586.860    -529.496     769.437
  C      587.193    -527.078     769.021
  O      586.249    -527.250     767.944
  C      586.786    -525.867     769.873
  N      590.835    -523.015     768.591
  C      589.885    -523.624     767.840
  N      588.842    -524.366     768.263
  C      588.822    -524.446     769.604
  C      589.722    -523.886     770.491
  C      590.772    -523.138     769.943
  N      591.753    -522.533     770.694
  N      589.374    -524.195     771.799
  C      588.302    -524.946     771.685
  N      587.926    -525.119     770.390
  O      582.595    -528.313     774.450
  O      584.241    -530.272     774.385
  H      586.383    -528.152     767.592
  H      582.095    -529.004     774.914
  H      589.974    -523.485     766.771
  H      587.774    -525.396     772.524
  H      586.159    -525.157     769.319
  H      588.186    -527.006     768.578
  H      587.952    -528.248     770.673
  H      584.937    -527.971     770.231
  H      585.873    -529.576     772.020
  H      592.519    -522.089     770.210
  H      591.767    -522.694     771.691
  H      586.444    -528.144     772.879
  P      587.196    -530.793     770.326
  C      584.807    -531.661     769.945
  O      585.763    -531.241     770.904
  O      587.893    -530.132     771.608
  O      587.972    -531.856     769.628
  H      587.404    -529.357     771.930
  H      583.901    -531.967     770.464
  H      585.186    -532.520     769.390
  H      584.573    -530.845     769.261
  H      585.039    -526.196     776.327
  H      583.449    -526.900     776.160
  H      584.175    -526.053     774.816

 3  4  5  6  7  8  9  10  11  12  22  25  29  30  31  32 0
 6-311+G(2d,p)
 ****
 33  36  37 0
 6-311+G(2d,p)
 ****
 1  2  13  14  15  16  17  18  19  20  21  23  24  26 0
 3-21G
 ****
 27  28  34  35  38  39  40  41  42  43  44  45  46  47  48 0
 3-21G
 ****


