%nproc=1
%NoSave
%Mem=1900MB
#P OB98/GEN NMR

erre ene a

0 1
  C      109.188     -87.393    -596.970
  O      109.294     -86.534    -595.833
  P      108.161     -86.708    -594.696
  C      106.592     -84.810    -595.536
  O      106.766     -86.208    -595.308
  C      105.132     -84.378    -595.377
  O      104.354     -84.939    -596.469
  C      104.471     -84.817    -594.070
  O      103.579     -83.784    -593.632
  C      103.611     -85.997    -594.496
  O      102.535     -86.238    -593.589
  C      103.176     -85.543    -595.895
  N      101.606     -86.804    -600.540
  C      102.140     -85.607    -600.072
  N      102.252     -84.611    -600.976
  N      102.531     -85.428    -598.838
  C      102.391     -86.520    -598.059
  C      101.883     -87.754    -598.406
  C      101.412     -87.936    -599.763
  O      100.881     -88.955    -600.216
  N      101.898     -88.621    -597.327
  C      102.410     -87.896    -596.347
  N      102.707     -86.622    -596.733
  O      108.550     -85.593    -593.621
  O      108.142     -88.074    -594.086
  H      102.069     -85.380    -593.468
  H      108.678     -85.994    -592.740
  H      101.304     -86.884    -601.499
  H      102.554     -88.254    -595.325
  H      102.390     -84.778    -595.838
  H      104.224     -86.908    -594.538
  H      102.041     -84.708    -601.957
  H      105.162     -85.076    -593.264
  H      102.688     -83.744    -600.679
  H      105.084     -83.283    -595.474
  H      106.938     -84.564    -596.547
  H      107.229     -84.265    -594.826
  P      104.082     -82.887    -592.386
  C      102.655     -83.947    -590.469
  O      103.931     -83.823    -591.092
  O      102.917     -81.805    -592.231
  O      105.428     -82.253    -592.598
  H      103.274     -80.989    -591.822
  H      101.853     -83.509    -591.093
  H      102.681     -83.408    -589.522
  H      102.448     -84.995    -590.302
  H      109.988     -87.186    -597.649
  H      108.252     -87.223    -597.459
  H      109.244     -88.413    -596.653

 3  4  5  6  7  8  9  10  11  12  23  26  30  31  33  0
 6-311+G(2d,p)
 ****
 35  36  37  38 0
 6-311+G(2d,p)
 ****
 1  2  13  14  15  16  17  18  19  20  21  22  24  25  27  28  29 0
 3-21G
 ****
 32  34  39  40  41  42  43  44  45  46  47  48  49 0
 3-21G
 ****


