%nproc=1
%NoSave
%Mem=1900MB
#P OB98/GEN NMR

erre ene a

0 1
  C      653.719     417.711    -174.368
  O      653.758     417.960    -172.958
  P      655.175     418.299    -172.286
  C      654.458     420.714    -171.621
  O      654.943     419.444    -171.186
  C      653.531     421.313    -170.564
  O      652.218     420.703    -170.585
  C      654.041     421.147    -169.133
  O      654.991     422.153    -168.798
  C      652.762     421.356    -168.338
  O      652.483     422.768    -168.222
  C      651.717     420.676    -169.226
  N      648.117     417.418    -167.783
  C      648.025     418.759    -168.108
  N      646.789     419.310    -168.065
  N      649.045     419.495    -168.471
  C      650.215     418.798    -168.492
  C      650.430     417.473    -168.183
  C      649.287     416.684    -167.774
  O      649.314     415.491    -167.451
  N      651.751     417.144    -168.319
  C      652.336     418.256    -168.727
  N      651.449     419.299    -168.837
  O      655.938     419.072    -173.456
  O      655.932     417.098    -171.821
  H      652.398     423.112    -169.128
  H      656.908     418.949    -173.364
  H      647.299     416.903    -167.508
  H      653.395     418.356    -168.967
  H      650.748     421.205    -169.222
  H      652.833     420.972    -167.324
  H      645.945     418.795    -167.847
  H      654.433     420.137    -168.960
  H      646.700     420.287    -168.332
  H      653.412     422.389    -170.779
  H      653.917     420.613    -172.562
  H      655.310     421.367    -171.836
  P      656.063     421.822    -167.640
  C      657.976     423.318    -168.554
  O      657.015     423.111    -167.540
  O      656.987     420.704    -168.337
  O      655.471     421.332    -166.360
  H      657.334     420.092    -167.655
  H      658.409     424.322    -168.419
  H      657.511     423.283    -169.553
  H      658.771     422.573    -168.489
  H      652.713     417.501    -174.665
  H      654.342     416.872    -174.599
  H      654.073     418.574    -174.892

 3  4  5  6  7  8  9  10  11  12  23  26  30  31 0
 6-311+G(2d,p)
 ****
 33  35  36  37  38 0
 6-311+G(2d,p)
 ****
 1  2  13  14  15  16  17  18  19  20  21  22  24  25 0
 3-21G
 ****
 27  28  29  32  34  39  40  41  42  43  44  45  46  47  48  49 0
 3-21G
 ****


