%nproc=1
%NoSave
%Mem=1900MB
#P OB98/GEN NMR

erre ene a

0 1
  C       49.387    -164.126    -267.302
  O       48.653    -163.538    -266.247
  H       49.632    -165.155    -267.027
  H       50.318    -163.576    -267.474
  H       48.786    -164.137    -268.215
  P       48.241    -161.998    -266.428
  C       45.855    -162.720    -265.775
  O       46.928    -161.824    -265.518
  C       44.844    -162.685    -264.628
  O       45.394    -163.423    -263.506
  C       44.523    -161.269    -264.135
  O       43.148    -161.207    -263.752
  C       45.392    -161.129    -262.896
  O       44.899    -160.139    -261.998
  C       45.371    -162.557    -262.358
  N       47.442    -161.399    -257.853
  C       46.231    -161.135    -258.386
  N       45.750    -161.503    -259.593
  C       46.646    -162.269    -260.245
  C       47.917    -162.622    -259.831
  C       48.320    -162.142    -258.573
  N       49.563    -162.375    -258.034
  N       48.548    -163.375    -260.802
  C       47.667    -163.484    -261.782
  N       46.511    -162.813    -261.494
  O       48.103    -161.530    -267.838
  O       49.361    -161.250    -265.564
  H       45.579    -159.978    -261.310
  H       49.487    -161.679    -264.694
  H       45.561    -160.539    -257.768
  H       47.825    -164.017    -262.714
  H       44.465    -162.774    -261.774
  H       46.409    -160.839    -263.187
  H       44.737    -160.498    -264.876
  H       43.935    -163.211    -264.940
  H       46.236    -163.742    -265.897
  H       49.766    -161.994    -257.122
  H       50.229    -162.932    -258.549
  H       45.377    -162.415    -266.714
  P       42.226    -160.035    -264.346
  C       40.327    -161.337    -265.503
  O       40.704    -160.548    -264.383
  O       42.712    -159.407    -265.607
  O       42.199    -158.970    -263.147
  H       42.284    -158.068    -263.520
  H       39.298    -161.615    -265.413
  H       40.933    -162.218    -265.539
  H       40.466    -160.772    -266.401

 6  7  8  9  10  11  12  13  14  15  25  28  32  33  34  35 0
 6-311+G(2d,p)
 ****
 36  39  40 0
 6-311+G(2d,p)
 ****
 1  2  3  4  5  16  17  18  19  20  21  22  23  24 0
 3-21G
 ****
 26  27  29  30  31  37  38  41  42  43  44  45  46  47 0
 3-21G
 ****
 48 0
 3-21G
 ****


