%nproc=1
%NoSave
%Mem=1900MB
#P OB98/GEN NMR

erre ene a

0 1
  C     -290.780    -402.159     123.181
  O     -290.654    -402.826     121.919
  P     -290.296    -402.059     120.561
  C     -292.736    -401.532     119.921
  O     -291.448    -400.995     120.217
  C     -293.591    -400.530     119.135
  O     -294.047    -399.465     119.995
  C     -292.874    -399.828     117.985
  O     -292.735    -400.697     116.862
  C     -293.780    -398.632     117.745
  O     -294.909    -398.988     116.934
  C     -294.224    -398.282     119.188
  N     -293.506    -397.144     119.739
  C     -294.207    -395.932     119.802
  O     -295.347    -395.856     119.361
  N     -293.577    -394.841     120.349
  C     -292.339    -394.923     120.722
  N     -291.770    -393.805     121.265
  C     -291.528    -396.156     120.587
  C     -292.172    -397.211     120.088
  O     -289.951    -402.962     119.423
  O     -289.035    -401.128     120.933
  H     -295.446    -398.171     116.832
  H     -288.464    -401.019     120.138
  H     -290.492    -396.179     120.882
  H     -291.662    -398.166     119.955
  H     -295.302    -398.069     119.213
  H     -293.269    -397.802     117.239
  H     -291.885    -399.486     118.317
  H     -294.479    -401.065     118.771
  H     -292.346    -392.986     121.351
  H     -293.237    -401.768     120.861
  H     -290.806    -393.769     121.588
  H     -292.604    -402.455     119.339
  P     -291.316    -401.369     116.552
  C     -290.877    -399.583     114.749
  O     -290.374    -400.237     115.909
  O     -291.369    -402.663     115.798
  O     -290.661    -401.575     117.998
  H     -290.093    -402.371     117.981
  H     -290.382    -398.608     114.669
  H     -291.959    -399.420     114.832
  H     -290.661    -400.193     113.876
  H     -291.023    -402.874     123.939
  H     -291.556    -401.425     123.121
  H     -289.855    -401.680     123.425

 3  4  5  6  7  8  9  10  11  12  13  23  27  28  29  30  32 0
 6-311+G(2d,p)
 ****
 34  35 0
 6-311+G(2d,p)
 ****
 1  2  14  15  16  17  18  19  20  21  22  24  25  26 0
 3-21G
 ****
 31  33  36  37  38  39  40  41  42  43  44  45  46 0
 3-21G
 ****


