%nproc=1
%NoSave
%Mem=1900MB
#P OB98/GEN NMR

erre ene a

0 1
  C      -60.444     377.811    -156.001
  O      -60.155     376.831    -156.973
  H      -59.761     378.655    -156.135
  H      -60.298     377.395    -155.003
  H      -61.473     378.175    -156.106
  P      -61.229     375.651    -157.170
  C      -60.538     375.245    -159.637
  O      -60.670     374.694    -158.336
  C      -59.702     374.322    -160.522
  O      -58.295     374.519    -160.225
  C      -60.011     372.826    -160.321
  O      -59.954     372.165    -161.595
  C      -58.864     372.340    -159.450
  O      -58.615     370.939    -159.595
  C      -57.722     373.233    -159.931
  N      -54.102     370.693    -157.509
  C      -54.923     370.302    -158.556
  N      -54.761     369.036    -159.013
  N      -55.823     371.082    -159.096
  C      -55.850     372.325    -158.550
  C      -55.093     372.831    -157.514
  C      -54.126     371.946    -156.907
  O      -53.386     372.223    -155.967
  N      -55.445     374.131    -157.231
  C      -56.402     374.408    -158.095
  N      -56.681     373.344    -158.924
  O      -62.469     376.398    -157.854
  O      -61.638     374.946    -155.916
  H      -58.168     370.812    -160.459
  H      -63.237     376.373    -157.260
  H      -53.434     370.041    -157.120
  H      -56.937     375.350    -158.161
  H      -57.253     372.849    -160.843
  H      -59.098     372.537    -158.395
  H      -54.058     368.406    -158.684
  H      -60.983     372.644    -159.861
  H      -55.325     368.750    -159.806
  H      -59.851     374.610    -161.575
  H      -60.040     376.218    -159.554
  H      -61.532     375.380    -160.074
  P      -61.317     371.487    -162.124
  C      -60.445     371.203    -164.545
  O      -60.961     370.561    -163.389
  O      -62.112     372.720    -162.759
  O      -62.113     370.823    -161.046
  H      -62.868     372.967    -162.196
  H      -60.254     370.473    -165.303
  H      -59.534     371.706    -164.297
  H      -61.158     371.914    -164.906

 6  7  8  9  10  11  12  13  14  15  26  29  33  34 0
 6-311+G(2d,p)
 ****
 36  38  39  40  41 0
 6-311+G(2d,p)
 ****
 1  2  3  4  5  16  17  18  19  20  21  22  23  24  25 0
 3-21G
 ****
 27  28  30  31  32  35  37  42  43  44  45  46  47 0
 3-21G
 ****
 48  49 0
 3-21G
 ****


