%nproc=1
%NoSave
%Mem=1900MB
#P OB98/GEN NMR

erre ene a

0 1
  C      473.969     422.107      36.049
  O      473.026     422.256      37.088
  H      473.819     422.912      35.325
  H      473.814     421.152      35.543
  H      474.990     422.167      36.428
  P      473.204     421.389      38.426
  C      473.795     423.487      39.802
  O      474.217     422.206      39.364
  C      474.906     424.193      40.581
  O      475.037     423.566      41.891
  C      476.282     424.130      39.902
  O      476.996     425.317      40.260
  C      476.904     422.922      40.578
  O      478.303     422.896      40.411
  C      476.396     423.105      42.011
  N      476.495     421.880      42.802
  C      477.724     421.613      43.387
  O      478.716     422.336      43.237
  N      477.811     420.459      44.115
  C      476.816     419.534      44.264
  O      476.959     418.504      44.906
  C      475.546     419.851      43.587
  C      475.449     420.992      42.897
  O      473.559     419.953      38.224
  O      471.810     421.553      39.193
  H      478.707     422.256      41.037
  H      471.620     420.756      39.721
  H      478.698     420.258      44.555
  H      474.745     419.133      43.674
  H      474.524     421.248      42.391
  H      476.971     423.885      42.528
  H      476.508     421.994      40.150
  H      476.224     424.029      38.816
  H      474.603     425.235      40.762
  H      472.918     423.354      40.445
  H      473.507     424.094      38.935
  P      476.980     426.633      39.339
  C      476.983     428.228      41.362
  O      476.316     427.835      40.161
  O      476.396     426.423      37.980
  O      478.523     427.067      39.228
  H      478.668     427.536      38.385
  H      476.448     429.034      41.819
  H      477.978     428.546      41.130
  H      477.022     427.398      42.036

 6  7  8  9  10  11  12  13  14  15  16  26  31  32  33  34  35 0
 6-311+G(2d,p)
 ****
 36  37 0
 6-311+G(2d,p)
 ****
 1  2  3  4  5  17  18  19  20  21  22  23  24  25 0
 3-21G
 ****
 27  28  29  30  38  39  40  41  42  43  44  45 0
 3-21G
 ****


