%nproc=1
%NoSave
%Mem=1900MB
#P OB98/GEN NMR

erre ene a

0 1
  C     -342.705     143.222    -146.363
  O     -342.396     143.341    -147.758
  P     -342.601     144.783    -148.434
  C     -341.103     144.848    -150.567
  O     -342.398     144.633    -150.017
  C     -341.152     144.759    -152.100
  O     -341.183     143.387    -152.540
  C     -342.395     145.397    -152.691
  O     -342.267     146.808    -152.719
  C     -342.458     144.757    -154.076
  O     -341.725     145.522    -155.048
  C     -341.789     143.381    -153.849
  N     -342.721     142.267    -153.995
  C     -343.248     142.077    -155.274
  O     -342.938     142.836    -156.197
  N     -344.136     141.045    -155.469
  C     -344.483     140.291    -154.468
  N     -345.367     139.288    -154.722
  C     -343.964     140.481    -153.094
  C     -343.100     141.482    -152.927
  O     -341.295     145.592    -147.971
  O     -343.857     145.477    -148.021
  H     -341.844     145.057    -155.902
  H     -341.508     146.538    -147.861
  H     -344.288     139.832    -152.290
  H     -342.671     141.693    -151.953
  H     -340.969     143.230    -154.568
  H     -343.488     144.681    -154.439
  H     -343.283     145.107    -152.111
  H     -340.250     145.242    -152.507
  H     -345.699     139.189    -155.670
  H     -340.400     144.106    -150.180
  H     -345.708     138.650    -154.019
  H     -340.738     145.829    -150.243
  P     -342.693     147.626    -151.403
  C     -340.783     149.323    -151.064
  O     -342.068     149.096    -151.610
  O     -341.708     147.003    -150.298
  O     -344.117     147.559    -150.982
  H     -341.929     147.352    -149.417
  H     -340.398     150.269    -151.442
  H     -340.095     148.517    -151.337
  H     -340.857     149.390    -149.970
  H     -342.526     142.217    -146.042
  H     -343.734     143.469    -146.203
  H     -342.086     143.891    -145.802

 3  4  5  6  7  8  9  10  11  12  13  21  23  27  28  29  30  32 0
 6-311+G(2d,p)
 ****
 34  35 0
 6-311+G(2d,p)
 ****
 1  2  14  15  16  17  18  19  20  22  24  25  26 0
 3-21G
 ****
 31  33  36  37  38  39  40  41  42  43  44  45  46 0
 3-21G
 ****


