%nproc=1
%NoSave
%Mem=1900MB
#P OB98/GEN NMR

erre ene a

0 1
  C     -233.903    -212.998     708.328
  O     -232.921    -213.707     709.060
  H     -234.145    -213.568     707.426
  H     -233.522    -212.020     708.037
  H     -234.814    -212.887     708.924
  P     -232.336    -213.056     710.413
  C     -232.620    -215.190     711.839
  O     -231.709    -214.256     711.274
  C     -231.868    -216.319     712.554
  O     -231.413    -217.250     711.542
  C     -230.644    -215.798     713.339
  O     -230.616    -216.228     714.690
  C     -229.468    -216.213     712.441
  O     -228.245    -216.391     713.115
  C     -229.995    -217.470     711.715
  N     -229.353    -217.748     710.430
  C     -228.068    -218.258     710.462
  O     -227.427    -218.517     711.484
  N     -227.484    -218.492     709.231
  C     -228.065    -218.241     708.022
  O     -227.508    -218.467     706.950
  C     -229.431    -217.667     708.053
  C     -229.986    -217.440     709.244
  O     -233.278    -212.177     711.162
  O     -231.031    -212.255     709.923
  H     -228.282    -217.259     713.566
  H     -231.226    -211.293     709.914
  H     -226.564    -218.883     709.248
  H     -229.900    -217.455     707.105
  H     -230.989    -217.010     709.298
  H     -229.872    -218.348     712.356
  H     -229.307    -215.432     711.691
  H     -230.657    -214.703     713.401
  H     -232.569    -216.860     713.208
  H     -233.241    -215.598     711.028
  H     -233.288    -214.678     712.556
  P     -230.926    -215.292     715.950
  C     -232.226    -217.146     717.316
  O     -231.127    -216.215     717.243
  O     -231.924    -214.201     715.724
  O     -229.504    -214.579     716.250
  H     -229.713    -213.695     716.614
  H     -232.191    -217.667     718.250
  H     -232.152    -217.849     716.513
  H     -233.151    -216.613     717.240

 6  7  8  9  10  11  12  13  14  15  16  26  31  32  33  34  35 0
 6-311+G(2d,p)
 ****
 36  37 0
 6-311+G(2d,p)
 ****
 1  2  3  4  5  17  18  19  20  21  22  23  24  25 0
 3-21G
 ****
 27  28  29  30  38  39  40  41  42  43  44  45 0
 3-21G
 ****


