%nproc=1
%NoSave
%Mem=1900MB
#P OB98/GEN NMR

erre ene a

0 1
  C     -636.067     524.865     185.467
  O     -636.774     523.654     185.260
  H     -635.136     524.830     184.893
  H     -635.823     524.998     186.526
  H     -636.666     525.712     185.115
  P     -638.042     523.353     186.197
  C     -636.493     522.100     187.847
  O     -637.451     523.149     187.675
  C     -636.964     521.091     188.901
  O     -637.642     521.782     189.971
  C     -637.965     520.075     188.377
  O     -637.421     519.148     187.464
  C     -638.630     519.578     189.652
  O     -637.921     518.513     190.286
  C     -638.573     520.842     190.554
  N     -639.893     521.439     190.736
  C     -640.682     520.869     191.732
  O     -640.323     519.909     192.415
  N     -641.929     521.415     191.897
  C     -642.464     522.418     191.136
  O     -643.612     522.833     191.309
  C     -641.599     522.960     190.081
  C     -640.373     522.449     189.931
  O     -638.935     522.230     185.744
  O     -638.783     524.766     186.296
  H     -638.366     518.345     191.137
  H     -639.715     524.658     186.622
  H     -642.508     521.022     192.621
  H     -641.999     523.758     189.459
  H     -639.712     522.842     189.153
  H     -638.185     520.586     191.544
  H     -639.645     519.226     189.466
  H     -638.743     520.619     187.821
  H     -636.079     520.594     189.323
  H     -635.552     522.557     188.180
  H     -636.327     521.598     186.884
  P     -638.007     518.921     185.990
  C     -639.452     516.806     186.456
  O     -639.436     518.190     186.116
  O     -637.046     518.434     184.945
  O     -638.436     520.428     185.588
  H     -638.288     520.520     184.630
  H     -640.464     516.462     186.503
  H     -638.984     516.667     187.408
  H     -638.920     516.250     185.713

 6  7  8  9  10  11  12  13  14  15  16  26  31  32  33  34  35 0
 6-311+G(2d,p)
 ****
 36  37 0
 6-311+G(2d,p)
 ****
 1  2  3  4  5  17  18  19  20  21  22  23  24  25 0
 3-21G
 ****
 27  28  29  30  38  39  40  41  42  43  44  45 0
 3-21G
 ****


