%nproc=1
%NoSave
%Mem=1900MB
#P OB98/GEN NMR

erre ene a

0 1
  C      694.468    -356.051    -427.790
  O      693.192    -356.258    -427.215
  H      694.878    -357.000    -428.153
  H      694.364    -355.367    -428.635
  H      695.148    -355.609    -427.056
  P      693.121    -357.234    -425.942
  C      691.076    -355.804    -425.212
  O      691.622    -357.105    -425.378
  C      689.695    -355.908    -424.573
  O      688.732    -356.374    -425.548
  C      689.614    -356.888    -423.408
  O      690.093    -356.320    -422.198
  C      688.117    -357.127    -423.350
  O      687.462    -356.007    -422.725
  C      687.751    -357.188    -424.840
  N      685.061    -361.503    -425.427
  C      684.777    -360.339    -424.811
  N      685.546    -359.239    -424.694
  C      686.732    -359.428    -425.298
  C      687.171    -360.558    -425.964
  C      686.271    -361.641    -426.023
  N      686.566    -362.835    -426.641
  N      688.463    -360.387    -426.427
  C      688.778    -359.158    -426.081
  N      687.769    -358.536    -425.384
  O      693.994    -356.471    -424.834
  O      693.588    -358.636    -426.169
  H      687.960    -355.819    -421.906
  H      694.286    -357.103    -424.147
  H      683.790    -360.284    -424.347
  H      689.723    -358.670    -426.296
  H      686.761    -356.767    -425.050
  H      687.846    -358.021    -422.776
  H      690.123    -357.829    -423.637
  H      689.390    -354.900    -424.261
  H      690.990    -355.325    -426.191
  H      685.934    -363.601    -426.467
  H      687.510    -362.995    -426.951
  H      691.746    -355.210    -424.583
  P      690.124    -357.268    -420.905
  C      691.787    -355.588    -419.813
  O      690.573    -356.329    -419.683
  O      691.402    -358.193    -421.156
  O      688.879    -358.069    -420.682
  H      691.313    -359.049    -420.698
  H      691.951    -355.014    -418.925
  H      691.715    -354.931    -420.655
  H      692.604    -356.264    -419.957

 6  7  8  9  10  11  12  13  14  15  25  28  32  33  34  35 0
 6-311+G(2d,p)
 ****
 36  39  40 0
 6-311+G(2d,p)
 ****
 1  2  3  4  5  16  17  18  19  20  21  22  23  24 0
 3-21G
 ****
 26  27  29  30  31  37  38  41  42  43  44  45  46  47 0
 3-21G
 ****
 48 0
 3-21G
 ****


