%nproc=1
%NoSave
%Mem=1900MB
#P OB98/GEN NMR

erre ene a

0 1
  C     -678.559     -87.591    -264.498
  O     -678.507     -89.019    -264.400
  P     -677.545     -89.899    -265.327
  C     -676.014     -91.288    -263.788
  O     -676.142     -90.104    -264.575
  C     -675.685     -90.967    -262.324
  O     -676.747     -90.202    -261.725
  C     -675.488     -92.191    -261.439
  O     -674.205     -92.748    -261.630
  C     -675.732     -91.592    -260.054
  O     -674.544     -90.930    -259.580
  C     -676.843     -90.575    -260.333
  N     -680.708     -90.425    -256.995
  C     -679.530     -89.775    -257.036
  N     -678.546     -89.879    -257.956
  C     -678.891     -90.732    -258.926
  C     -680.070     -91.471    -259.023
  C     -681.005     -91.294    -257.989
  N     -682.206     -91.971    -257.949
  N     -680.052     -92.269    -260.150
  C     -678.901     -92.001    -260.737
  N     -678.173     -91.081    -260.038
  O     -677.413     -89.404    -266.732
  O     -678.191     -91.366    -265.307
  H     -673.822     -91.587    -259.591
  H     -677.968     -91.835    -266.135
  H     -679.346     -89.094    -256.215
  H     -678.566     -92.440    -261.663
  H     -676.703     -89.660    -259.752
  H     -675.999     -92.349    -259.307
  H     -676.263     -92.935    -261.651
  H     -674.782     -90.337    -262.315
  H     -675.215     -91.902    -264.217
  H     -682.810     -91.813    -257.157
  H     -682.410     -92.654    -258.665
  H     -676.952     -91.853    -263.848
  P     -673.819     -93.406    -263.047
  C     -671.431     -92.487    -262.920
  O     -672.633     -92.527    -263.664
  O     -674.965     -93.671    -263.968
  O     -673.077     -94.765    -262.639
  H     -673.215     -95.432    -263.337
  H     -671.535     -91.762    -262.099
  H     -670.617     -92.160    -263.572
  H     -671.185     -93.468    -262.507
  H     -679.265     -87.210    -263.790
  H     -678.860     -87.312    -265.486
  H     -677.591     -87.184    -264.291

 3  4  5  6  7  8  9  10  11  12  22  25  29  30  31  32 0
 6-311+G(2d,p)
 ****
 33  36  37 0
 6-311+G(2d,p)
 ****
 1  2  13  14  15  16  17  18  19  20  21  23  24  26 0
 3-21G
 ****
 27  28  34  35  38  39  40  41  42  43  44  45  46  47  48 0
 3-21G
 ****


