%nproc=1
%NoSave
%Mem=1900MB
#P OB98/GEN NMR

erre ene a

0 1
  C      259.934    -657.599    -158.094
  O      261.232    -657.083    -157.780
  P      261.772    -657.073    -156.270
  C      264.233    -657.423    -156.939
  O      263.305    -656.577    -156.266
  C      265.661    -656.917    -156.911
  O      265.832    -655.768    -157.779
  C      266.182    -656.508    -155.524
  O      267.576    -656.822    -155.517
  C      265.963    -655.011    -155.520
  O      266.736    -654.336    -154.540
  C      266.305    -654.660    -156.981
  N      265.727    -653.387    -157.395
  C      266.583    -652.280    -157.413
  O      267.755    -652.388    -157.028
  N      266.086    -651.064    -157.828
  C      264.820    -650.938    -158.088
  N      264.372    -649.719    -158.458
  C      263.859    -652.074    -158.008
  C      264.390    -653.257    -157.674
  O      261.525    -658.337    -155.513
  O      260.992    -655.845    -155.589
  H      266.427    -654.613    -153.655
  H      260.863    -656.033    -154.636
  H      262.807    -651.922    -158.207
  H      263.776    -654.144    -157.583
  H      267.410    -654.612    -157.115
  H      264.903    -654.786    -155.325
  H      265.657    -657.006    -154.704
  H      266.302    -657.710    -157.323
  H      265.054    -648.956    -158.478
  H      263.897    -657.523    -157.983
  H      263.399    -649.493    -158.581
  H      264.179    -658.428    -156.497
  P      268.168    -658.060    -154.681
  C      269.771    -658.528    -156.625
  O      269.644    -658.343    -155.238
  O      267.295    -659.259    -154.631
  O      268.416    -657.472    -153.207
  H      268.518    -658.213    -152.579
  H      270.814    -658.492    -156.923
  H      269.219    -657.743    -157.181
  H      269.353    -659.515    -156.905
  H      259.763    -657.517    -159.147
  H      259.190    -657.039    -157.567
  H      259.879    -658.627    -157.803

 3  4  5  6  7  8  9  10  11  12  13  23  27  28  29  30  32 0
 6-311+G(2d,p)
 ****
 34  35 0
 6-311+G(2d,p)
 ****
 1  2  14  15  16  17  18  19  20  21  22  24  25  26 0
 3-21G
 ****
 31  33  36  37  38  39  40  41  42  43  44  45  46 0
 3-21G
 ****


