%nproc=1
%NoSave
%Mem=1900MB
#P OB98/GEN NMR

erre ene a

0 1
  C      388.224     952.063      16.293
  O      388.067     951.068      17.281
  H      387.588     952.915      16.545
  H      387.928     951.681      15.310
  H      389.270     952.401      16.260
  P      388.901     949.709      17.074
  C      390.795     950.709      18.504
  O      389.868     949.637      18.350
  C      391.607     950.533      19.791
  O      392.726     951.455      19.755
  C      390.810     950.828      21.053
  O      391.192     949.904      22.087
  C      391.238     952.234      21.445
  O      391.087     952.481      22.838
  C      392.694     952.245      20.953
  N      395.188     956.253      22.901
  C      395.002     955.001      23.358
  N      394.329     953.985      22.764
  C      393.865     954.363      21.558
  C      393.968     955.605      20.963
  C      394.662     956.600      21.698
  N      394.825     957.882      21.261
  N      393.322     955.618      19.742
  C      392.849     954.393      19.599
  N      393.142     953.603      20.682
  O      389.569     949.559      15.744
  O      387.798     948.599      17.413
  H      391.584     951.786      23.328
  H      387.283     948.832      18.207
  H      395.443     954.779      24.324
  H      392.280     954.039      18.743
  H      393.382     951.816      21.684
  H      390.638     952.967      20.898
  H      389.722     950.767      20.902
  H      392.035     949.524      19.800
  H      390.263     951.667      18.534
  H      395.350     958.521      21.835
  H      394.463     958.152      20.353
  H      391.457     950.705      17.628
  P      390.214     948.678      22.416
  C      390.929     946.881      20.698
  O      390.970     947.305      22.056
  O      388.820     948.786      21.895
  O      390.232     948.652      24.019
  H      389.330     948.423      24.345
  H      391.466     945.961      20.595
  H      391.379     947.628      20.077
  H      389.912     946.735      20.400

 6  7  8  9  10  11  12  13  14  15  25  28  32  33  34  35 0
 6-311+G(2d,p)
 ****
 36  39  40 0
 6-311+G(2d,p)
 ****
 1  2  3  4  5  16  17  18  19  20  21  22  23  24 0
 3-21G
 ****
 26  27  29  30  31  37  38  41  42  43  44  45  46  47 0
 3-21G
 ****
 48 0
 3-21G
 ****


