%nproc=1
%NoSave
%Mem=1900MB
#P OB98/GEN NMR

erre ene a

0 1
  C       89.234    -286.796    -118.362
  O       90.578    -286.835    -117.937
  H       88.639    -286.296    -117.594
  H       88.852    -287.811    -118.498
  H       89.146    -286.234    -119.296
  P       91.643    -287.512    -118.934
  C       92.738    -289.872    -119.068
  O       91.820    -289.017    -118.395
  C       92.750    -291.257    -118.419
  O       93.056    -291.120    -117.010
  C       91.416    -291.996    -118.537
  O       91.662    -293.363    -118.868
  C       90.802    -291.881    -117.154
  O       89.898    -292.948    -116.872
  C       92.046    -291.817    -116.256
  N       91.769    -291.147    -114.988
  C       91.126    -291.901    -113.999
  O       90.810    -293.072    -114.226
  N       90.809    -291.306    -112.809
  C       91.055    -290.043    -112.635
  N       90.697    -289.501    -111.442
  C       91.686    -289.193    -113.666
  C       92.017    -289.805    -114.800
  O       93.016    -286.800    -118.529
  O       91.311    -287.407    -120.385
  H       89.562    -292.825    -115.954
  H       93.720    -286.961    -119.203
  H       91.856    -288.142    -113.479
  H       92.486    -289.261    -115.617
  H       92.421    -292.828    -116.043
  H       90.242    -290.938    -117.082
  H       90.757    -291.565    -119.291
  H       93.568    -291.838    -118.860
  H       90.258    -290.110    -110.762
  H       93.739    -289.429    -119.014
  H       90.815    -288.525    -111.208
  H       92.441    -289.960    -120.118
  P       90.926    -293.906    -120.193
  C       88.585    -294.849    -120.790
  O       89.423    -294.297    -119.783
  O       91.633    -295.316    -120.459
  O       91.037    -292.981    -121.361
  H       92.314    -295.229    -121.151
  H       87.621    -295.059    -120.376
  H       89.020    -295.754    -121.159
  H       88.484    -294.149    -121.593

 6  7  8  9  10  11  12  13  14  15  16  26  30  31  32  33  35 0
 6-311+G(2d,p)
 ****
 37  38 0
 6-311+G(2d,p)
 ****
 1  2  3  4  5  17  18  19  20  21  22  23  24  25 0
 3-21G
 ****
 27  28  29  34  36  39  40  41  42  43  44  45  46 0
 3-21G
 ****


