%nproc=1
%NoSave
%Mem=1900MB
#P OB98/GEN NMR

erre ene a

0 1
  C     -271.838    -470.668     596.788
  O     -272.452    -470.852     598.045
  H     -272.542    -470.159     596.128
  H     -271.581    -471.634     596.345
  H     -270.942    -470.051     596.889
  P     -271.652    -471.640     599.191
  C     -273.572    -473.350     598.952
  O     -272.680    -472.684     599.842
  C     -274.951    -473.507     599.601
  O     -274.814    -474.431     600.712
  C     -275.500    -472.177     600.140
  O     -276.812    -471.886     599.670
  C     -275.293    -472.301     601.647
  O     -276.182    -471.531     602.422
  C     -275.374    -473.814     601.886
  N     -274.668    -474.256     603.088
  C     -275.422    -474.430     604.243
  O     -276.632    -474.250     604.334
  N     -274.724    -474.840     605.350
  C     -273.378    -475.071     605.415
  O     -272.810    -475.440     606.435
  C     -272.634    -474.847     604.166
  C     -273.300    -474.454     603.079
  O     -270.925    -470.782     600.172
  O     -270.645    -472.586     598.379
  H     -276.220    -470.636     602.016
  H     -269.741    -472.220     598.435
  H     -275.258    -474.983     606.192
  H     -271.564    -475.008     604.185
  H     -272.782    -474.278     602.143
  H     -276.412    -474.131     601.977
  H     -274.278    -471.958     601.884
  H     -274.906    -471.332     599.770
  H     -275.633    -473.963     598.875
  H     -273.143    -474.332     598.725
  H     -273.660    -472.776     598.022
  P     -277.151    -471.105     598.321
  C     -278.918    -469.222     598.826
  O     -278.651    -470.554     598.416
  O     -276.761    -471.784     597.055
  O     -276.274    -469.753     598.436
  H     -276.027    -469.508     597.520
  H     -279.975    -469.053     598.823
  H     -278.446    -468.539     598.151
  H     -278.535    -469.069     599.813

 6  7  8  9  10  11  12  13  14  15  16  26  31  32  33  34  35 0
 6-311+G(2d,p)
 ****
 36  37 0
 6-311+G(2d,p)
 ****
 1  2  3  4  5  17  18  19  20  21  22  23  24  25 0
 3-21G
 ****
 27  28  29  30  38  39  40  41  42  43  44  45 0
 3-21G
 ****


