%nproc=1
%NoSave
%Mem=1900MB
#P OB98/GEN NMR

erre ene a

0 1
  C       45.510    -287.680    -181.705
  O       44.894    -288.235    -182.850
  H       46.046    -286.775    -182.004
  H       46.232    -288.387    -181.290
  H       44.766    -287.414    -180.952
  P       43.924    -289.497    -182.671
  C       44.825    -291.821    -183.343
  O       44.327    -290.571    -183.797
  C       46.338    -291.914    -183.564
  O       46.591    -292.085    -184.982
  C       47.106    -290.675    -183.098
  O       48.356    -291.080    -182.538
  C       47.341    -289.903    -184.382
  O       48.492    -289.063    -184.305
  C       47.477    -291.031    -185.404
  N       48.691    -291.419    -190.293
  C       49.195    -292.084    -189.195
  N       50.184    -292.976    -189.429
  N       48.771    -291.896    -187.973
  C       47.763    -290.992    -187.891
  C       47.178    -290.266    -188.904
  C       47.672    -290.472    -190.249
  O       47.276    -289.900    -191.257
  N       46.200    -289.437    -188.418
  C       46.193    -289.659    -187.117
  N       47.133    -290.583    -186.746
  O       42.465    -289.169    -182.621
  O       44.416    -290.189    -181.317
  H       49.250    -289.640    -184.061
  H       43.795    -290.011    -180.587
  H       49.061    -291.595    -191.213
  H       45.540    -289.177    -186.403
  H       48.498    -291.432    -185.453
  H       46.470    -289.274    -184.601
  H       50.543    -293.190    -190.348
  H       46.546    -290.094    -182.365
  H       50.550    -293.502    -188.642
  H       46.707    -292.817    -183.062
  H       44.321    -292.615    -183.903
  H       44.590    -291.936    -182.277
  P       48.542    -291.053    -180.947
  C       50.734    -289.751    -181.251
  O       50.097    -290.845    -180.608
  O       47.880    -292.170    -180.203
  O       47.903    -289.637    -180.539
  H       47.469    -289.726    -179.665
  H       51.761    -289.710    -180.952
  H       50.245    -288.840    -180.973
  H       50.676    -289.878    -182.312

 6  7  8  9  10  11  12  13  14  15  26  29  33  34 0
 6-311+G(2d,p)
 ****
 36  38  39  40  41 0
 6-311+G(2d,p)
 ****
 1  2  3  4  5  16  17  18  19  20  21  22  23  24  25 0
 3-21G
 ****
 27  28  30  31  32  35  37  42  43  44  45  46  47 0
 3-21G
 ****
 48  49 0
 3-21G
 ****


