%nproc=1
%NoSave
%Mem=1900MB
#P OB98/GEN NMR

erre ene a

0 1
  C      245.236     133.601    -403.420
  O      246.620     133.891    -403.395
  H      245.017     132.738    -402.783
  H      244.690     134.469    -403.042
  H      244.913     133.396    -404.444
  P      247.605     132.696    -403.814
  C      250.105     132.506    -404.472
  O      249.053     133.354    -404.040
  C      251.399     133.300    -404.605
  O      251.331     134.186    -405.743
  C      251.723     134.200    -403.414
  O      252.279     133.465    -402.329
  C      252.746     135.135    -404.038
  O      254.035     134.492    -404.072
  C      252.208     135.308    -405.469
  N      252.143     140.381    -404.666
  C      253.039     139.426    -404.328
  N      252.987     138.100    -404.564
  C      251.867     137.778    -405.240
  C      250.870     138.637    -405.648
  C      251.027     140.000    -405.333
  N      250.100     140.960    -405.665
  N      249.885     137.952    -406.328
  C      250.281     136.700    -406.333
  N      251.474     136.540    -405.675
  O      247.132     132.325    -405.300
  O      247.577     131.501    -402.918
  H      254.632     135.092    -404.553
  H      247.222     131.360    -405.431
  H      253.923     139.777    -403.800
  H      249.741     135.877    -406.789
  H      253.017     135.266    -406.210
  H      252.861     136.072    -403.491
  H      250.846     134.774    -403.104
  H      252.215     132.587    -404.786
  H      249.848     132.076    -405.445
  H      250.360     141.931    -405.592
  H      249.268     140.667    -406.175
  H      250.227     131.696    -403.743
  P      252.412     134.219    -400.918
  C      252.489     133.447    -398.440
  O      252.352     133.066    -399.806
  O      250.996     134.953    -400.763
  O      253.550     135.178    -400.817
  H      251.087     135.735    -400.181
  H      252.429     132.577    -397.819
  H      251.705     134.126    -398.179
  H      253.436     133.923    -398.296

 6  7  8  9  10  11  12  13  14  15  25  28  32  33  34  35 0
 6-311+G(2d,p)
 ****
 36  39  40 0
 6-311+G(2d,p)
 ****
 1  2  3  4  5  16  17  18  19  20  21  22  23  24 0
 3-21G
 ****
 26  27  29  30  31  37  38  41  42  43  44  45  46  47  48 0
 3-21G
 ****


