%nproc=1
%NoSave
%Mem=1900MB
#P OB98/GEN NMR

erre ene a

0 1
  C      265.090     503.628     102.474
  O      266.313     502.912     102.415
  P      267.667     503.512     103.034
  C      267.338     502.333     105.311
  O      267.427     503.562     104.617
  C      268.203     502.362     106.571
  O      268.107     501.076     107.235
  C      269.687     502.643     106.312
  O      270.174     503.416     107.416
  C      270.299     501.259     106.319
  O      271.695     501.273     106.587
  C      269.450     500.573     107.394
  N      269.481     499.116     107.288
  C      270.713     498.480     107.455
  O      271.737     499.127     107.656
  N      270.752     497.109     107.387
  C      269.684     496.444     107.094
  N      269.764     495.085     107.098
  C      268.386     497.081     106.806
  C      268.353     498.404     106.943
  O      268.114     504.801     102.429
  O      268.725     502.326     102.896
  H      272.148     501.696     105.834
  H      269.167     502.303     102.011
  H      267.525     496.486     106.539
  H      267.441     498.957     106.776
  H      269.781     500.881     108.392
  H      270.153     500.788     105.340
  H      269.860     503.196     105.383
  H      267.785     503.112     107.254
  H      270.616     494.680     107.469
  H      267.706     501.537     104.650
  H      268.937     494.510     107.205
  H      266.290     502.119     105.556
  P      271.092     504.696     107.105
  C      269.024     506.244     107.359
  O      270.140     505.872     106.577
  O      271.833     504.241     105.755
  O      272.104     505.057     108.143
  H      272.684     504.718     105.682
  H      268.501     507.059     106.855
  H      269.343     506.591     108.344
  H      268.337     505.400     107.467
  H      264.318     503.054     102.007
  H      265.198     504.562     101.963
  H      264.831     503.809     103.496

 3  4  5  6  7  8  9  10  11  12  13  23  27  28  29  30  32 0
 6-311+G(2d,p)
 ****
 34  35 0
 6-311+G(2d,p)
 ****
 1  2  14  15  16  17  18  19  20  21  22  24  25  26 0
 3-21G
 ****
 31  33  36  37  38  39  40  41  42  43  44  45  46 0
 3-21G
 ****


