%nproc=1
%NoSave
%Mem=1900MB
#P OB98/GEN NMR

erre ene a

0 1
  C       77.657      59.847     233.140
  O       79.014      59.678     232.768
  P       79.490      58.365     231.979
  C       79.175      55.833     232.311
  O       79.162      57.114     232.931
  C       78.538      54.784     233.220
  O       77.317      55.326     233.779
  C       78.175      53.490     232.498
  O       78.395      52.388     233.385
  C       76.684      53.608     232.243
  O       76.071      52.311     232.129
  C       76.235      54.434     233.454
  N       71.236      54.307     232.275
  C       72.128      53.321     232.510
  N       73.447      53.424     232.793
  C       73.809      54.716     232.877
  C       73.011      55.832     232.669
  C       71.661      55.588     232.350
  N       70.750      56.601     232.122
  N       73.745      56.993     232.812
  C       74.955      56.586     233.123
  N       75.044      55.219     233.184
  O       80.889      58.404     231.471
  O       78.431      58.205     230.792
  H       75.105      52.456     232.046
  H       78.875      57.894     229.978
  H       71.733      52.307     232.462
  H       75.803      57.233     233.300
  H       76.042      53.797     234.329
  H       76.512      54.145     231.304
  H       78.744      53.346     231.575
  H       79.223      54.585     234.057
  H       80.217      55.557     232.114
  H       69.783      56.335     232.022
  H       71.023      57.547     232.348
  H       78.641      55.886     231.352
  P       78.562      50.945     232.685
  C       76.852      49.104     231.999
  O       77.065      50.400     232.516
  O       79.529      50.076     233.418
  O       79.028      51.368     231.209
  H       78.726      52.275     230.983
  H       75.775      48.929     231.922
  H       77.276      48.354     232.673
  H       77.298      49.007     231.007
  H       77.541      60.779     233.653
  H       77.361      59.046     233.784
  H       77.044      59.844     232.263

 3  4  5  6  7  8  9  10  11  12  22  25  29  30  31  32 0
 6-311+G(2d,p)
 ****
 33  36  37 0
 6-311+G(2d,p)
 ****
 1  2  13  14  15  16  17  18  19  20  21  23  24  26 0
 3-21G
 ****
 27  28  34  35  38  39  40  41  42  43  44  45  46  47  48 0
 3-21G
 ****


