%nproc=1
%NoSave
%Mem=1900MB
#P OB98/GEN NMR

erre ene a

0 1
  C       60.928     133.137    -301.144
  O       61.809     134.106    -300.612
  H       60.425     132.626    -300.318
  H       61.483     132.399    -301.727
  H       60.173     133.618    -301.772
  P       62.694     134.935    -301.662
  C       60.502     136.059    -302.488
  O       61.705     135.388    -302.841
  C       60.501     137.459    -303.095
  O       60.807     137.383    -304.507
  C       59.156     138.171    -303.009
  O       58.915     138.710    -301.722
  C       59.330     139.242    -304.075
  O       60.024     140.389    -303.559
  C       60.178     138.514    -305.142
  N       59.383     138.123    -306.298
  C       59.462     136.781    -306.665
  O       60.155     135.960    -306.066
  N       58.743     136.420    -307.773
  C       58.002     137.255    -308.555
  O       57.443     136.880    -309.579
  C       57.940     138.661    -308.111
  C       58.629     139.027    -307.027
  O       63.603     133.807    -302.338
  O       63.511     136.037    -301.069
  H       64.506     133.838    -301.970
  H       60.135     141.001    -304.315
  H       58.801     135.458    -308.060
  H       57.355     139.351    -308.709
  H       58.616     140.060    -306.696
  H       60.988     139.168    -305.494
  H       58.369     139.594    -304.449
  H       58.347     137.494    -303.316
  H       61.283     138.054    -302.602
  H       60.434     136.141    -301.398
  H       59.649     135.474    -302.850
  P       57.398     138.810    -301.208
  C       57.718     136.873    -299.456
  O       57.033     137.375    -300.585
  O       56.603     138.851    -302.592
  O       57.147     139.964    -300.297
  H       57.010     138.300    -303.282
  H       57.328     135.910    -299.201
  H       57.585     137.542    -298.631
  H       58.761     136.787    -299.680

 6  7  8  9  10  11  12  13  14  15  16  27  31  32  33  34  35 0
 6-311+G(2d,p)
 ****
 36  37 0
 6-311+G(2d,p)
 ****
 1  2  3  4  5  17  18  19  20  21  22  23  24  25 0
 3-21G
 ****
 26  28  29  30  38  39  40  41  42  43  44  45 0
 3-21G
 ****


