%nproc=1
%NoSave
%Mem=1900MB
#P OB98/GEN NMR

erre ene a

0 1
  C      -76.123     331.512     511.304
  O      -76.075     332.841     510.804
  H      -75.797     330.835     510.511
  H      -77.146     331.248     511.594
  H      -75.451     331.401     512.155
  P      -76.569     334.031     511.750
  C      -74.195     334.409     512.691
  O      -75.282     334.982     511.997
  C      -73.107     335.470     512.944
  O      -72.535     335.814     511.652
  C      -73.682     336.758     513.580
  O      -72.989     337.151     514.761
  C      -73.710     337.742     512.414
  O      -73.629     339.108     512.792
  C      -72.557     337.254     511.517
  N      -72.700     337.644     510.114
  C      -72.211     338.897     509.738
  O      -71.659     339.702     510.498
  N      -72.370     339.231     508.408
  C      -72.975     338.446     507.465
  O      -73.084     338.797     506.285
  C      -73.492     337.155     507.924
  C      -73.332     336.809     509.213
  O      -77.279     333.615     512.996
  O      -77.503     334.924     510.806
  H      -72.730     339.277     513.122
  H      -78.441     334.742     511.004
  H      -72.015     340.131     508.126
  H      -73.973     336.507     507.205
  H      -73.692     335.853     509.581
  H      -71.595     337.648     511.879
  H      -74.662     337.615     511.869
  H      -74.707     336.599     513.937
  H      -72.314     335.033     513.559
  H      -73.797     333.597     512.098
  H      -74.525     334.002     513.662
  P      -73.665     337.364     516.193
  C      -73.590     334.900     517.075
  O      -73.116     336.241     517.188
  O      -75.151     337.603     516.178
  O      -72.961     338.725     516.729
  H      -73.637     339.189     517.273
  H      -73.117     334.291     517.817
  H      -73.359     334.521     516.102
  H      -74.650     334.883     517.222

 6  7  8  9  10  11  12  13  14  15  16  26  31  32  33  34  35 0
 6-311+G(2d,p)
 ****
 36  37 0
 6-311+G(2d,p)
 ****
 1  2  3  4  5  17  18  19  20  21  22  23  24  25 0
 3-21G
 ****
 27  28  29  30  38  39  40  41  42  43  44  45 0
 3-21G
 ****


