%nproc=1
%NoSave
%Mem=1900MB
#P OB98/GEN NMR

erre ene a

0 1
  C       88.267      67.683    -165.808
  O       89.374      68.586    -165.854
  P       89.163      70.151    -165.567
  C       89.301      70.819    -168.034
  O       88.496      70.837    -166.860
  C       89.174      72.093    -168.879
  O       87.832      72.237    -169.406
  C       89.508      73.393    -168.137
  O       90.093      74.262    -169.113
  C       88.134      73.888    -167.725
  O       88.129      75.274    -167.397
  C       87.301      73.495    -168.951
  N       85.875      73.406    -168.647
  C       85.134      74.586    -168.741
  O       85.692      75.651    -169.011
  N       83.786      74.542    -168.478
  C       83.248      73.438    -168.062
  N       81.914      73.463    -167.795
  C       84.011      72.187    -167.866
  C       85.304      72.243    -168.186
  O       90.370      70.860    -165.044
  O       87.980      70.184    -164.482
  H       88.840      75.436    -166.739
  H       88.090      70.968    -163.911
  H       83.525      71.299    -167.492
  H       85.946      71.379    -168.081
  H       87.436      74.225    -169.761
  H       87.793      73.338    -166.841
  H       90.180      73.248    -167.288
  H       89.839      71.978    -169.743
  H       81.432      74.346    -167.918
  H       89.006      69.956    -168.642
  H       81.422      72.695    -167.360
  H       90.347      70.666    -167.746
  P       91.512      73.951    -169.784
  C       92.669      75.768    -168.403
  O       92.630      74.392    -168.726
  O       91.697      74.516    -171.156
  O       91.624      72.351    -169.795
  H       92.312      72.081    -170.430
  H       93.313      75.910    -167.533
  H       91.665      76.140    -168.168
  H       93.078      76.335    -169.244
  H       88.606      66.692    -166.025
  H       87.537      67.977    -166.533
  H       87.830      67.704    -164.832

 3  4  5  6  7  8  9  10  11  12  13  23  27  28  29  30  32 0
 6-311+G(2d,p)
 ****
 34  35 0
 6-311+G(2d,p)
 ****
 1  2  14  15  16  17  18  19  20  21  22  24  25  26 0
 3-21G
 ****
 31  33  36  37  38  39  40  41  42  43  44  45  46 0
 3-21G
 ****


