%nproc=1
%NoSave
%Mem=1900MB
#P OB98/GEN NMR

erre ene a

0 1
  C      392.978     -58.345       4.755
  O      392.531     -57.459       3.755
  P      391.369     -56.392       3.972
  C      388.843     -56.266       3.303
  O      389.968     -57.082       3.613
  C      387.797     -57.053       2.500
  O      388.332     -57.318       1.178
  C      387.502     -58.417       3.143
  O      386.126     -58.775       3.143
  C      388.465     -59.349       2.418
  O      388.097     -60.720       2.496
  C      388.489     -58.743       1.019
  N      390.479     -60.772      -3.193
  C      389.158     -60.494      -2.903
  N      388.244     -60.986      -3.766
  N      388.777     -59.830      -1.842
  C      389.794     -59.503      -1.013
  C      391.140     -59.722      -1.194
  C      391.550     -60.427      -2.386
  O      392.699     -60.796      -2.628
  N      391.875     -59.312      -0.112
  C      390.972     -58.875       0.741
  N      389.691     -59.000       0.254
  O      391.623     -55.011       3.460
  O      391.299     -56.309       5.584
  H      387.214     -60.811       2.095
  H      391.065     -55.386       5.814
  H      390.705     -61.360      -3.986
  H      391.183     -58.487       1.730
  H      387.661     -59.106       0.410
  H      389.443     -59.256       2.905
  H      388.497     -61.623      -4.509
  H      387.760     -58.404       4.208
  H      387.278     -61.015      -3.451
  H      386.897     -56.441       2.383
  H      389.228     -55.431       2.705
  H      388.404     -55.854       4.213
  P      385.375     -59.862       4.039
  C      384.561     -62.285       3.813
  O      385.308     -61.238       3.224
  O      383.844     -59.392       4.064
  O      385.896     -59.994       5.433
  H      383.473     -59.539       4.953
  H      384.817     -63.224       3.318
  H      383.492     -62.093       3.680
  H      384.789     -62.372       4.882
  H      393.763     -58.958       4.364
  H      392.165     -58.965       5.072
  H      393.345     -57.785       5.589

 3  4  5  6  7  8  9  10  11  12  23  26  30  31 0
 6-311+G(2d,p)
 ****
 33  35  36  37  38 0
 6-311+G(2d,p)
 ****
 1  2  13  14  15  16  17  18  19  20  21  22  24  25 0
 3-21G
 ****
 27  28  29  32  34  39  40  41  42  43  44  45  46  47  48  49 0
 3-21G
 ****


