%nproc=1
%NoSave
%Mem=1900MB
#P OB98/GEN NMR

erre ene a

0 1
  C     1037.548    -603.644    -206.509
  O     1036.805    -602.442    -206.342
  P     1037.258    -601.324    -205.286
  C     1037.217    -598.734    -205.354
  O     1036.655    -599.942    -205.858
  C     1036.700    -597.549    -206.172
  O     1037.131    -597.696    -207.539
  C     1035.178    -597.416    -206.214
  O     1034.679    -596.881    -205.001
  C     1035.004    -596.548    -207.448
  O     1035.249    -595.169    -207.132
  C     1036.122    -597.066    -208.388
  N     1035.628    -597.996    -209.392
  C     1036.315    -598.014    -210.611
  O     1037.299    -597.285    -210.802
  N     1035.913    -598.897    -211.584
  C     1034.899    -599.672    -211.373
  N     1034.562    -600.580    -212.337
  C     1034.099    -599.650    -210.117
  C     1034.526    -598.791    -209.186
  O     1038.740    -601.292    -205.009
  O     1036.365    -601.588    -203.995
  H     1034.445    -594.837    -206.699
  H     1036.767    -602.230    -203.360
  H     1033.249    -600.303    -209.998
  H     1034.018    -598.728    -208.240
  H     1036.620    -596.224    -208.881
  H     1034.001    -596.609    -207.901
  H     1034.713    -598.400    -206.396
  H     1037.153    -596.634    -205.771
  H     1035.246    -600.690    -213.097
  H     1038.306    -598.781    -205.441
  H     1033.993    -601.390    -212.131
  H     1036.944    -598.637    -204.297
  P     1033.350    -596.002    -205.088
  C     1031.292    -595.632    -203.531
  O     1032.528    -596.288    -203.726
  O     1032.490    -596.737    -206.234
  O     1033.579    -594.555    -205.400
  H     1032.563    -596.244    -207.073
  H     1030.775    -596.104    -202.705
  H     1030.659    -595.708    -204.428
  H     1031.462    -594.577    -203.286
  H     1037.081    -604.251    -207.256
  H     1037.576    -604.178    -205.582
  H     1038.546    -603.407    -206.814

 3  4  5  6  7  8  9  10  11  12  13  23  27  28  29  30  32 0
 6-311+G(2d,p)
 ****
 34  35 0
 6-311+G(2d,p)
 ****
 1  2  14  15  16  17  18  19  20  21  22  24  25  26 0
 3-21G
 ****
 31  33  36  37  38  39  40  41  42  43  44  45  46 0
 3-21G
 ****


