%nproc=1
%NoSave
%Mem=1900MB
#P OB98/GEN NMR

erre ene a

0 1
  C      327.664     318.907     268.953
  O      327.922     318.916     267.563
  H      328.546     318.528     269.470
  H      326.821     318.244     269.170
  H      327.446     319.916     269.322
  P      326.907     319.692     266.591
  C      324.396     319.413     266.069
  O      325.600     318.766     266.469
  C      323.873     318.819     264.762
  O      324.661     319.348     263.647
  C      323.956     317.283     264.694
  O      322.867     316.829     263.872
  C      325.270     317.080     263.973
  O      325.382     315.776     263.444
  C      325.230     318.220     262.951
  N      326.542     318.527     262.387
  C      327.192     317.494     261.722
  O      326.722     316.358     261.621
  N      328.423     317.795     261.206
  C      329.079     318.985     261.343
  O      330.200     319.183     260.885
  C      328.358     320.027     262.095
  C      327.146     319.761     262.570
  O      327.481     320.146     265.286
  O      326.379     320.924     267.470
  H      326.256     315.651     263.011
  H      326.168     321.682     266.893
  H      328.899     317.056     260.709
  H      328.865     320.978     262.234
  H      326.595     320.506     263.139
  H      324.551     317.967     262.118
  H      326.113     317.221     264.659
  H      323.925     316.806     265.677
  H      322.841     319.162     264.609
  H      324.613     320.482     265.930
  H      323.643     319.302     266.859
  P      321.739     315.823     264.430
  C      321.553     313.334     265.076
  O      322.320     314.324     264.391
  O      320.405     315.977     263.774
  O      321.652     316.147     265.997
  H      320.750     315.938     266.321
  H      322.034     312.383     264.982
  H      320.574     313.283     264.648
  H      321.477     313.595     266.111

 6  7  8  9  10  11  12  13  14  15  16  26  31  32  33  34  35 0
 6-311+G(2d,p)
 ****
 36  37 0
 6-311+G(2d,p)
 ****
 1  2  3  4  5  17  18  19  20  21  22  23  24  25 0
 3-21G
 ****
 27  28  29  30  38  39  40  41  42  43  44  45 0
 3-21G
 ****


