%nproc=1
%NoSave
%Mem=1900MB
#P OB98/GEN NMR

erre ene a

0 1
  C      159.659     -87.772      67.311
  O      160.927     -87.381      67.850
  P      161.159     -87.080      69.407
  C      162.953     -85.309      68.852
  O      162.623     -86.464      69.617
  C      164.420     -84.911      69.031
  O      164.716     -84.672      70.421
  C      165.426     -85.961      68.577
  O      165.531     -85.991      67.164
  C      166.685     -85.493      69.301
  O      167.337     -84.437      68.576
  C      166.109     -84.969      70.632
  N      166.296     -85.912      71.729
  C      166.797     -85.388      72.923
  O      167.115     -84.200      73.001
  N      166.951     -86.232      73.998
  C      166.697     -87.496      73.865
  N      166.861     -88.283      74.963
  C      166.252     -88.104      72.597
  C      166.072     -87.260      71.583
  O      160.849     -88.236      70.302
  O      160.189     -85.846      69.739
  H      167.756     -83.860      69.243
  H      159.897     -85.911      70.667
  H      166.079     -89.166      72.520
  H      165.738     -87.621      70.616
  H      166.583     -84.018      70.905
  H      167.418     -86.295      69.430
  H      165.133     -86.946      68.959
  H      164.580     -83.969      68.487
  H      167.158     -87.835      75.819
  H      162.311     -84.484      69.186
  H      166.689     -89.276      74.968
  H      162.740     -85.512      67.798
  P      165.185     -87.338      66.372
  C      166.885     -86.598      64.595
  O      165.590     -87.115      64.837
  O      163.816     -87.886      66.592
  O      166.301     -88.374      66.879
  H      165.923     -89.272      66.874
  H      167.186     -86.864      63.579
  H      167.612     -87.009      65.302
  H      166.864     -85.509      64.687
  H      159.750     -87.916      66.255
  H      158.937     -87.006      67.506
  H      159.343     -88.685      67.770

 3  4  5  6  7  8  9  10  11  12  13  23  27  28  29  30  32 0
 6-311+G(2d,p)
 ****
 34  35 0
 6-311+G(2d,p)
 ****
 1  2  14  15  16  17  18  19  20  21  22  24  25  26 0
 3-21G
 ****
 31  33  36  37  38  39  40  41  42  43  44  45  46 0
 3-21G
 ****


