%nproc=1
%NoSave
%Mem=1900MB
#P OB98/GEN NMR

erre ene a

0 1
  C      307.026     -52.340    -153.854
  O      308.055     -53.297    -153.954
  H      306.711     -52.272    -152.809
  H      306.170     -52.659    -154.456
  H      307.359     -51.354    -154.185
  P      309.000     -53.274    -155.246
  C      310.977     -54.601    -154.242
  O      309.931     -54.585    -155.206
  C      311.663     -55.962    -154.170
  O      310.799     -56.911    -153.510
  C      311.971     -56.540    -155.556
  O      313.208     -56.120    -156.104
  C      311.971     -58.042    -155.283
  O      313.266     -58.501    -154.873
  C      310.965     -58.195    -154.141
  N      308.024     -62.290    -155.018
  C      309.376     -62.240    -154.724
  N      310.024     -63.424    -154.704
  N      310.018     -61.120    -154.498
  C      309.259     -60.014    -154.651
  C      307.916     -59.940    -154.958
  C      307.197     -61.180    -155.137
  O      306.001     -61.280    -155.376
  N      307.495     -58.633    -155.072
  C      308.601     -57.928    -154.923
  N      309.684     -58.717    -154.582
  O      310.048     -52.103    -154.925
  O      308.306     -53.023    -156.551
  H      313.551     -57.957    -154.107
  H      310.325     -51.673    -155.755
  H      307.575     -63.177    -155.153
  H      308.671     -56.846    -154.997
  H      311.334     -58.882    -153.366
  H      311.709     -58.604    -156.186
  H      309.596     -64.302    -154.957
  H      311.158     -56.319    -156.256
  H      311.046     -63.412    -154.685
  H      312.571     -55.883    -153.561
  H      310.513     -54.360    -153.281
  H      311.709     -53.817    -154.460
  P      313.632     -56.516    -157.597
  C      315.934     -55.264    -157.439
  O      315.219     -56.455    -157.703
  O      313.150     -55.245    -158.447
  O      313.048     -57.790    -158.113
  H      312.290     -55.426    -158.873
  H      316.981     -55.441    -157.567
  H      315.746     -54.950    -156.433
  H      315.616     -54.499    -158.117

 6  7  8  9  10  11  12  13  14  15  26  29  33  34 0
 6-311+G(2d,p)
 ****
 36  38  39  40  41 0
 6-311+G(2d,p)
 ****
 1  2  3  4  5  16  17  18  19  20  21  22  23  24  25 0
 3-21G
 ****
 27  28  30  31  32  35  37  42  43  44  45  46  47 0
 3-21G
 ****
 48  49 0
 3-21G
 ****


