%nproc=1
%NoSave
%Mem=1900MB
#P OB98/GEN NMR

erre ene a

0 1
  C      -33.123    -166.054    -184.873
  O      -32.251    -166.510    -185.886
  H      -34.142    -166.037    -185.268
  H      -32.849    -165.042    -184.563
  H      -33.089    -166.730    -184.014
  P      -30.687    -166.555    -185.529
  C      -28.620    -165.098    -186.120
  O      -29.991    -165.375    -186.364
  C      -27.909    -164.826    -187.443
  O      -28.088    -165.950    -188.336
  C      -28.446    -163.619    -188.199
  O      -27.962    -162.396    -187.671
  C      -27.924    -163.902    -189.599
  O      -26.567    -163.457    -189.757
  C      -28.017    -165.441    -189.685
  N      -29.148    -165.882    -190.496
  C      -28.871    -166.116    -191.840
  O      -27.752    -165.969    -192.333
  N      -29.934    -166.492    -192.612
  C      -31.227    -166.614    -192.191
  O      -32.149    -166.883    -192.950
  C      -31.457    -166.365    -190.757
  C      -30.425    -166.005    -189.989
  O      -30.187    -167.888    -186.264
  O      -30.371    -166.563    -184.070
  H      -30.077    -168.604    -185.612
  H      -26.583    -162.488    -189.630
  H      -29.756    -166.657    -193.591
  H      -32.471    -166.460    -190.386
  H      -30.576    -165.799    -188.933
  H      -27.102    -165.855    -190.128
  H      -28.515    -163.387    -190.359
  H      -29.541    -163.638    -188.219
  H      -26.834    -164.714    -187.243
  H      -28.153    -165.960    -185.635
  H      -28.543    -164.233    -185.453
  P      -29.025    -161.283    -187.218
  C      -30.399    -159.442    -188.496
  O      -29.432    -160.479    -188.545
  O      -28.086    -160.268    -186.416
  O      -30.174    -161.831    -186.441
  H      -27.199    -160.184    -186.802
  H      -30.531    -159.031    -189.475
  H      -30.065    -158.674    -187.829
  H      -31.330    -159.838    -188.147

 6  7  8  9  10  11  12  13  14  15  16  27  31  32  33  34  35 0
 6-311+G(2d,p)
 ****
 36  37 0
 6-311+G(2d,p)
 ****
 1  2  3  4  5  17  18  19  20  21  22  23  24  25 0
 3-21G
 ****
 26  28  29  30  38  39  40  41  42  43  44  45 0
 3-21G
 ****


