%nproc=1
%NoSave
%Mem=1900MB
#P OB98/GEN NMR

erre ene a

0 1
  C       72.425    -429.076      19.185
  O       73.402    -428.154      19.696
  P       72.902    -426.873      20.534
  C       72.852    -425.309      18.432
  O       73.346    -425.545      19.743
  C       72.970    -423.819      18.081
  O       72.178    -423.019      18.991
  C       74.384    -423.258      18.196
  O       75.194    -423.633      17.093
  C       74.111    -421.762      18.262
  O       73.921    -421.215      16.943
  C       72.791    -421.716      19.060
  N       72.992    -421.298      20.447
  C       72.794    -419.947      20.720
  O       72.528    -419.117      19.857
  N       72.948    -419.579      22.035
  C       73.339    -420.391      23.057
  O       73.479    -419.992      24.208
  C       73.613    -421.796      22.689
  C       73.431    -422.169      21.426
  O       73.924    -426.871      21.775
  O       71.489    -426.915      21.005
  H       73.663    -420.282      17.061
  H       73.490    -426.456      22.545
  H       72.784    -418.607      22.255
  H       73.944    -422.461      23.470
  H       73.626    -423.201      21.137
  H       72.086    -421.021      18.588
  H       74.931    -421.204      18.726
  H       74.839    -423.585      19.142
  H       72.580    -423.674      17.064
  H       71.799    -425.601      18.383
  H       73.423    -425.916      17.722
  P       75.859    -425.097      17.155
  C       78.262    -424.152      17.585
  O       77.387    -424.882      16.742
  O       75.178    -425.794      15.884
  O       75.616    -425.798      18.450
  H       75.011    -425.161      15.160
  H       78.011    -424.295      18.634
  H       78.201    -423.094      17.328
  H       79.286    -424.502      17.415
  H       72.920    -429.864      18.657
  H       71.763    -428.562      18.520
  H       71.865    -429.489      19.998

 3  4  5  6  7  8  9  10  11  12  13  23  28  29  30  31  32 0
 6-311+G(2d,p)
 ****
 33  34 0
 6-311+G(2d,p)
 ****
 1  2  14  15  16  17  18  19  20  21  22  24  25  26 0
 3-21G
 ****
 27  35  36  37  38  39  40  41  42  43  44  45 0
 3-21G
 ****


