%nproc=1
%NoSave
%Mem=1900MB
#P OB98/GEN NMR

erre ene a

0 1
  C     -241.021    -145.756    -491.078
  O     -241.816    -144.569    -491.050
  P     -241.393    -143.350    -492.000
  C     -241.406    -141.337    -490.376
  O     -242.082    -141.999    -491.442
  C     -242.411    -140.563    -489.505
  O     -243.273    -141.528    -488.832
  C     -241.786    -139.722    -488.383
  O     -241.419    -138.371    -488.676
  C     -242.930    -139.652    -487.384
  O     -243.839    -138.603    -487.752
  C     -243.621    -141.005    -487.533
  N     -245.366    -144.068    -483.804
  C     -245.997    -143.248    -484.676
  N     -245.458    -142.464    -485.634
  C     -244.127    -142.597    -485.665
  C     -243.344    -143.404    -484.852
  C     -244.010    -144.161    -483.877
  N     -243.365    -144.995    -482.993
  N     -242.001    -143.274    -485.178
  C     -241.983    -142.386    -486.152
  N     -243.235    -141.966    -486.502
  O     -241.542    -143.582    -493.466
  O     -239.851    -143.126    -491.608
  H     -243.987    -138.688    -488.720
  H     -239.354    -142.887    -492.417
  H     -247.080    -143.210    -484.577
  H     -241.084    -142.028    -486.644
  H     -244.716    -140.931    -487.492
  H     -242.584    -139.423    -486.363
  H     -240.924    -140.245    -487.934
  H     -243.039    -139.935    -490.140
  H     -240.672    -140.637    -490.792
  H     -243.918    -145.474    -482.299
  H     -242.359    -145.031    -482.992
  H     -240.850    -142.088    -489.815
  P     -240.022    -137.761    -488.191
  C     -241.014    -136.366    -486.222
  O     -240.383    -136.370    -487.467
  O     -238.970    -137.666    -489.238
  O     -239.640    -138.707    -486.954
  H     -240.227    -138.615    -486.184
  H     -240.981    -135.347    -485.805
  H     -240.503    -137.036    -485.515
  H     -242.067    -136.658    -486.335
  H     -241.427    -146.473    -490.395
  H     -240.017    -145.520    -490.792
  H     -241.024    -146.164    -492.067

 3  4  5  6  7  8  9  10  11  12  22  25  29  30  31  32 0
 6-311+G(2d,p)
 ****
 33  36  37 0
 6-311+G(2d,p)
 ****
 1  2  13  14  15  16  17  18  19  20  21  23  24  26 0
 3-21G
 ****
 27  28  34  35  38  39  40  41  42  43  44  45  46  47  48 0
 3-21G
 ****


