%nproc=1
%NoSave
%Mem=1900MB
#P OB98/GEN NMR

erre ene a

0 1
  C     -509.365     105.921    -168.301
  O     -510.563     105.976    -169.047
  H     -508.954     104.911    -168.371
  H     -509.575     106.135    -167.249
  H     -508.627     106.629    -168.683
  P     -511.230     107.403    -169.345
  C     -513.237     107.142    -167.740
  O     -512.805     107.217    -169.090
  C     -514.743     106.882    -167.681
  O     -515.431     108.160    -167.825
  C     -515.248     105.949    -168.800
  O     -516.334     105.168    -168.287
  C     -515.762     106.947    -169.816
  O     -516.670     106.361    -170.721
  C     -516.377     108.010    -168.904
  N     -516.613     109.259    -169.620
  C     -517.647     109.261    -170.549
  O     -518.349     108.278    -170.793
  N     -517.818     110.418    -171.256
  C     -517.000     111.513    -171.203
  O     -517.148     112.493    -171.916
  C     -515.889     111.433    -170.242
  C     -515.750     110.328    -169.500
  O     -510.880     108.028    -170.654
  O     -510.797     108.311    -168.098
  H     -517.031     107.038    -171.317
  H     -510.858     109.256    -168.328
  H     -518.571     110.441    -171.924
  H     -515.207     112.274    -170.189
  H     -514.932     110.229    -168.796
  H     -517.319     107.654    -168.473
  H     -514.932     107.359    -170.400
  H     -514.469     105.291    -169.197
  H     -515.002     106.490    -166.693
  H     -513.002     108.098    -167.254
  H     -512.694     106.340    -167.228
  P     -516.219     103.575    -168.104
  C     -518.210     102.837    -169.552
  O     -517.666     102.887    -168.236
  O     -515.450     103.151    -166.894
  O     -515.458     103.081    -169.427
  H     -514.758     102.450    -169.179
  H     -519.168     102.362    -169.524
  H     -517.554     102.280    -170.188
  H     -518.316     103.832    -169.932

 6  7  8  9  10  11  12  13  14  15  16  26  31  32  33  34  35 0
 6-311+G(2d,p)
 ****
 36  37 0
 6-311+G(2d,p)
 ****
 1  2  3  4  5  17  18  19  20  21  22  23  24  25 0
 3-21G
 ****
 27  28  29  30  38  39  40  41  42  43  44  45 0
 3-21G
 ****


