%nproc=1
%NoSave
%Mem=1900MB
#P OB98/GEN NMR

erre ene a

0 1
  C      225.456     620.923     570.472
  O      225.439     619.519     570.390
  P      226.296     618.723     569.289
  C      228.260     618.670     570.950
  O      227.848     619.022     569.645
  C      229.259     617.512     570.931
  O      230.308     617.781     569.947
  C      229.960     617.227     572.275
  O      230.162     615.803     572.315
  C      231.275     617.948     572.119
  O      232.264     617.492     573.031
  C      231.588     617.699     570.642
  N      232.548     618.644     570.105
  C      233.880     618.502     570.539
  O      234.155     617.632     571.381
  N      234.841     619.354     570.040
  C      234.484     620.332     569.281
  N      235.488     621.143     568.813
  C      233.082     620.595     568.896
  C      232.189     619.712     569.317
  O      225.918     619.008     567.870
  O      226.132     617.187     569.717
  H      232.495     616.554     572.796
  H      225.242     616.852     569.435
  H      232.835     621.467     568.299
  H      231.133     619.843     569.093
  H      231.962     616.685     570.491
  H      231.134     619.027     572.300
  H      229.373     617.564     573.141
  H      228.733     616.611     570.567
  H      236.425     620.909     569.087
  H      227.382     618.355     571.520
  H      235.321     621.876     568.139
  H      228.687     619.540     571.457
  P      229.897     614.976     573.667
  C      227.427     614.535     573.182
  O      228.353     615.163     574.047
  O      230.868     615.262     574.791
  O      229.971     613.436     573.214
  H      230.084     612.876     574.010
  H      226.438     614.492     573.672
  H      227.745     613.522     572.935
  H      227.339     615.131     572.257
  H      224.819     621.241     571.271
  H      225.107     621.338     569.550
  H      226.455     621.257     570.658

 3  4  5  6  7  8  9  10  11  12  13  23  27  28  29  30  32 0
 6-311+G(2d,p)
 ****
 34  35 0
 6-311+G(2d,p)
 ****
 1  2  14  15  16  17  18  19  20  21  22  24  25  26 0
 3-21G
 ****
 31  33  36  37  38  39  40  41  42  43  44  45  46 0
 3-21G
 ****


