%nproc=1
%NoSave
%Mem=1900MB
#P OB98/GEN NMR

erre ene a

0 1
  C      -51.440    -429.507     415.707
  O      -52.334    -428.741     416.521
  P      -53.894    -428.790     416.127
  C      -55.712    -430.649     416.300
  O      -54.529    -430.075     416.846
  C      -56.173    -431.844     417.131
  O      -55.151    -432.866     417.177
  C      -56.465    -431.520     418.594
  O      -57.746    -430.921     418.750
  C      -56.434    -432.904     419.214
  O      -57.698    -433.559     419.025
  C      -55.332    -433.611     418.400
  N      -52.196    -436.528     421.121
  C      -53.435    -436.823     420.585
  N      -53.889    -438.083     420.775
  N      -54.161    -435.962     419.914
  C      -53.565    -434.750     419.779
  C      -52.345    -434.334     420.267
  C      -51.562    -435.291     421.028
  O      -50.478    -435.073     421.553
  N      -52.077    -433.034     419.913
  C      -53.123    -432.673     419.189
  N      -54.056    -433.672     419.091
  O      -53.857    -429.212     414.583
  O      -54.611    -427.501     416.339
  H      -58.400    -432.900     419.216
  H      -54.653    -428.878     414.128
  H      -51.684    -437.228     421.629
  H      -53.243    -431.705     418.718
  H      -55.624    -434.632     418.129
  H      -56.252    -432.880     420.297
  H      -53.351    -438.814     421.216
  H      -55.666    -430.900     419.023
  H      -54.782    -438.323     420.352
  H      -57.067    -432.269     416.657
  H      -55.525    -430.969     415.273
  H      -56.491    -429.877     416.257
  P      -57.886    -429.757     419.847
  C      -57.149    -427.267     419.887
  O      -56.986    -428.546     419.305
  O      -57.059    -430.332     421.094
  O      -59.298    -429.421     420.211
  H      -57.421    -429.974     421.929
  H      -57.233    -427.332     420.978
  H      -58.051    -426.792     419.476
  H      -56.280    -426.654     419.642
  H      -50.440    -429.392     416.070
  H      -51.495    -429.162     414.696
  H      -51.717    -430.540     415.747

 3  4  5  6  7  8  9  10  11  12  23  26  30  31  33  0
 6-311+G(2d,p)
 ****
 35  36  37  38 0
 6-311+G(2d,p)
 ****
 1  2  13  14  15  16  17  18  19  20  21  22  24  25  27  28  29 0
 3-21G
 ****
 32  34  39  40  41  42  43  44  45  46  47  48  49 0
 3-21G
 ****


