%nproc=1
%NoSave
%Mem=1900MB
#P OB98/GEN NMR

erre ene a

0 1
  C       -7.273     -86.893       7.312
  O       -7.700     -86.578       6.003
  H       -6.518     -86.163       7.617
  H       -6.823     -87.889       7.334
  H       -8.108     -86.846       8.015
  P       -8.906     -87.415       5.360
  C       -9.203     -89.830       4.514
  O       -8.439     -88.948       5.326
  C       -8.804     -91.275       4.797
  O       -8.754     -91.512       6.221
  C       -9.779     -92.306       4.239
  O       -9.623     -92.441       2.841
  C       -9.390     -93.527       5.057
  O       -8.204     -94.144       4.533
  C       -9.107     -92.896       6.441
  N      -10.240     -93.013       7.360
  C      -10.155     -94.022       8.313
  O       -9.200     -94.790       8.399
  N      -11.238     -94.151       9.143
  C      -12.402     -93.444       9.049
  O      -13.421     -93.738       9.665
  C      -12.404     -92.343       8.075
  C      -11.346     -92.190       7.276
  O       -9.445     -86.890       4.073
  O      -10.022     -87.407       6.510
  H      -10.701     -86.740       6.294
  H       -8.406     -94.390       3.609
  H      -11.207     -94.911       9.806
  H      -13.285     -91.717       8.015
  H      -11.338     -91.404       6.530
  H       -8.238     -93.375       6.910
  H      -10.171     -94.290       5.062
  H      -10.807     -92.025       4.490
  H       -7.796     -91.436       4.393
  H       -9.003     -89.596       3.463
  H      -10.267     -89.674       4.717
  P      -10.775     -91.983       1.831
  C      -12.993     -92.903       0.936
  O      -11.937     -93.087       1.868
  O      -10.309     -91.622       0.460
  O      -11.453     -90.724       2.553
  H      -11.465     -89.969       1.933
  H      -13.708     -93.691       1.047
  H      -12.598     -92.918      -0.058
  H      -13.469     -91.962       1.117

 6  7  8  9  10  11  12  13  14  15  16  27  31  32  33  34  35 0
 6-311+G(2d,p)
 ****
 36  37 0
 6-311+G(2d,p)
 ****
 1  2  3  4  5  17  18  19  20  21  22  23  24  25 0
 3-21G
 ****
 26  28  29  30  38  39  40  41  42  43  44  45 0
 3-21G
 ****


