%nproc=1
%NoSave
%Mem=1900MB
#P OB98/GEN NMR

erre ene a

0 1
  C      -65.741    -249.304       3.858
  O      -66.513    -250.503       4.024
  P      -66.989    -250.880       5.512
  C      -65.952    -253.224       6.076
  O      -67.049    -252.484       5.551
  C      -65.698    -254.460       5.215
  O      -64.835    -254.137       4.093
  C      -64.999    -255.599       5.948
  O      -65.888    -256.269       6.831
  C      -64.505    -256.439       4.779
  O      -65.571    -257.259       4.265
  C      -64.132    -255.352       3.739
  N      -62.693    -255.128       3.640
  C      -61.960    -256.148       3.035
  O      -62.473    -257.191       2.629
  N      -60.612    -255.935       2.936
  C      -59.937    -254.841       3.393
  O      -58.725    -254.696       3.261
  C      -60.755    -253.819       4.066
  C      -62.073    -254.006       4.162
  O      -68.519    -250.423       5.467
  O      -66.159    -250.231       6.571
  H      -68.938    -250.567       4.601
  H      -66.280    -256.647       3.989
  H      -60.067    -256.654       2.486
  H      -60.250    -252.949       4.467
  H      -62.697    -253.263       4.655
  H      -64.501    -255.638       2.747
  H      -63.682    -257.106       5.056
  H      -64.141    -255.206       6.511
  H      -66.668    -254.806       4.816
  H      -66.170    -253.538       7.101
  H      -65.069    -252.574       6.107
  P      -65.500    -256.263       8.396
  C      -65.485    -258.878       8.395
  O      -65.954    -257.685       8.982
  O      -66.581    -255.232       8.976
  O      -64.080    -255.878       8.658
  H      -67.475    -255.380       8.629
  H      -65.607    -259.696       9.117
  H      -64.430    -258.805       8.128
  H      -66.077    -259.107       7.503
  H      -65.495    -249.178       2.824
  H      -64.841    -249.377       4.432
  H      -66.311    -248.463       4.194

 3  4  5  6  7  8  9  10  11  12  13  24  28  29  30  31  32 0
 6-311+G(2d,p)
 ****
 33  34 0
 6-311+G(2d,p)
 ****
 1  2  14  15  16  17  18  19  20  21  22  23  25  26  27 0
 3-21G
 ****
 35  36  37  38  39  40  41  42  43  44  45 0
 3-21G
 ****


