%nproc=1
%NoSave
%Mem=1900MB
#P OB98/GEN NMR

erre ene a

0 1
  C      -69.513      46.912     455.195
  O      -70.428      47.612     454.371
  P      -69.910      48.472     453.121
  C      -70.241      50.636     454.494
  O      -69.324      49.828     453.753
  C      -69.540      51.854     455.088
  O      -68.599      51.447     456.116
  C      -68.731      52.661     454.088
  O      -69.582      53.461     453.292
  C      -67.802      53.441     455.013
  O      -68.456      54.606     455.537
  C      -67.535      52.414     456.137
  N      -66.227      51.779     456.002
  C      -65.191      52.340     456.756
  O      -65.400      53.331     457.452
  N      -63.928      51.793     456.662
  C      -63.727      50.787     455.868
  N      -62.456      50.291     455.812
  C      -64.779      50.182     455.036
  C      -65.996      50.725     455.148
  O      -70.896      48.654     452.015
  O      -68.584      47.687     452.666
  H      -67.801      55.052     456.115
  H      -68.803      46.845     452.204
  H      -64.558      49.355     454.377
  H      -66.830      50.349     454.569
  H      -67.580      52.905     457.119
  H      -66.897      53.783     454.500
  H      -68.134      51.982     453.459
  H      -70.307      52.493     455.557
  H      -61.755      50.758     456.373
  H      -70.659      50.022     455.302
  H      -62.179      49.538     455.201
  H      -71.060      50.942     453.836
  P      -69.265      53.660     451.733
  C      -67.677      55.636     452.155
  O      -67.815      54.331     451.607
  O      -70.343      54.319     450.937
  O      -69.004      52.162     451.209
  H      -69.467      52.038     450.355
  H      -66.620      55.845     452.309
  H      -68.205      55.716     453.115
  H      -68.084      56.371     451.456
  H      -70.048      46.402     455.969
  H      -68.826      47.605     455.633
  H      -68.974      46.200     454.605

 3  4  5  6  7  8  9  10  11  12  13  23  27  28  29  30  32 0
 6-311+G(2d,p)
 ****
 34  35 0
 6-311+G(2d,p)
 ****
 1  2  14  15  16  17  18  19  20  21  22  24  25  26 0
 3-21G
 ****
 31  33  36  37  38  39  40  41  42  43  44  45  46 0
 3-21G
 ****


