%nproc=1
%NoSave
%Mem=1900MB
#P OB98/GEN NMR

erre ene a

0 1
  C     -342.605     943.286     722.357
  O     -343.538     942.193     722.250
  P     -343.509     940.909     723.221
  C     -343.937     938.634     722.066
  O     -344.510     939.813     722.616
  C     -344.887     937.989     721.051
  O     -346.245     938.009     721.551
  C     -344.975     938.685     719.706
  O     -343.830     938.472     718.910
  C     -346.255     938.075     719.133
  O     -345.999     936.811     718.505
  C     -347.116     937.860     720.415
  N     -348.246     938.763     720.490
  C     -349.360     938.439     719.719
  O     -349.333     937.470     718.951
  N     -350.492     939.227     719.821
  C     -350.458     940.295     720.541
  N     -351.610     941.024     720.623
  C     -349.258     940.751     721.265
  C     -348.198     939.947     721.195
  O     -343.757     941.235     724.658
  O     -342.056     940.270     723.021
  H     -341.805     939.769     723.831
  H     -346.851     936.514     718.112
  H     -349.265     941.678     721.828
  H     -347.271     940.199     721.713
  H     -347.469     936.829     720.454
  H     -346.728     938.715     718.394
  H     -345.128     939.757     719.873
  H     -344.573     936.940     720.929
  H     -352.410     940.675     720.114
  H     -343.744     937.932     722.885
  H     -351.698     941.870     721.177
  H     -342.978     938.887     721.594
  P     -343.219     939.753     718.153
  C     -342.808     939.073     715.682
  O     -342.265     939.218     716.976
  O     -342.198     940.376     719.215
  O     -344.240     940.762     717.722
  H     -342.254     941.353     719.193
  H     -341.993     939.197     714.946
  H     -343.571     939.833     715.474
  H     -343.245     938.086     715.562
  H     -342.824     944.017     721.607
  H     -341.609     942.920     722.218
  H     -342.689     943.733     723.326

 3  4  5  6  7  8  9  10  11  12  13  24  27  28  29  30  32 0
 6-311+G(2d,p)
 ****
 34  35 0
 6-311+G(2d,p)
 ****
 1  2  14  15  16  17  18  19  20  21  22  23  25  26 0
 3-21G
 ****
 31  33  36  37  38  39  40  41  42  43  44  45  46 0
 3-21G
 ****


