%nproc=1
%NoSave
%Mem=1900MB
#P OB98/GEN NMR

erre ene a

0 1
  C      219.773      78.936      21.221
  O      220.123      79.592      22.423
  H      218.773      78.510      21.335
  H      220.475      78.123      21.017
  H      219.761      79.638      20.384
  P      221.484      80.436      22.473
  C      220.703      82.215      24.170
  O      221.562      81.110      23.924
  C      219.993      82.032      25.509
  O      219.101      80.896      25.450
  C      220.936      81.756      26.673
  O      221.585      82.937      27.098
  C      219.974      81.158      27.686
  O      219.245      82.187      28.372
  C      219.038      80.329      26.779
  N      219.375      78.907      26.762
  C      218.646      78.087      27.617
  O      217.781      78.508      28.383
  N      218.968      76.755      27.584
  C      219.997      76.198      26.884
  O      220.300      75.012      26.959
  C      220.749      77.116      26.016
  C      220.408      78.406      25.995
  O      221.709      81.369      21.331
  O      222.623      79.310      22.540
  H      218.626      81.730      28.975
  H      223.058      79.239      21.671
  H      218.460      76.147      28.206
  H      221.563      76.708      25.434
  H      220.955      79.099      25.366
  H      217.997      80.430      27.113
  H      220.486      80.567      28.445
  H      221.670      80.992      26.390
  H      219.387      82.927      25.703
  H      219.960      82.268      23.368
  H      221.296      83.135      24.167
  P      223.085      82.870      27.650
  C      223.199      85.435      27.759
  O      223.364      84.216      28.476
  O      224.125      82.525      26.636
  O      223.019      81.753      28.795
  H      223.621      81.020      28.566
  H      223.410      86.261      28.406
  H      222.192      85.507      27.406
  H      223.871      85.453      26.927

 6  7  8  9  10  11  12  13  14  15  16  26  31  32  33  34  35 0
 6-311+G(2d,p)
 ****
 36  37 0
 6-311+G(2d,p)
 ****
 1  2  3  4  5  17  18  19  20  21  22  23  24  25 0
 3-21G
 ****
 27  28  29  30  38  39  40  41  42  43  44  45 0
 3-21G
 ****


