%nproc=1
%NoSave
%Mem=1900MB
#P OB98/GEN NMR

erre ene a

0 1
  C     -290.809    -385.408    -154.678
  O     -289.874    -386.446    -154.452
  H     -291.256    -385.123    -153.719
  H     -291.605    -385.745    -155.349
  H     -290.309    -384.533    -155.104
  P     -289.135    -387.097    -155.713
  C     -291.232    -388.543    -156.184
  O     -290.292    -387.606    -156.702
  C     -290.537    -389.860    -155.830
  O     -291.413    -390.687    -155.040
  C     -290.147    -390.700    -157.041
  O     -289.001    -390.156    -157.674
  C     -289.940    -392.056    -156.382
  O     -288.671    -392.118    -155.709
  C     -291.103    -392.071    -155.354
  N     -292.290    -392.777    -155.828
  C     -292.161    -394.161    -155.983
  O     -291.083    -394.716    -155.747
  N     -293.251    -394.873    -156.428
  C     -294.374    -394.273    -156.654
  N     -295.412    -395.036    -157.087
  C     -294.565    -392.820    -156.463
  C     -293.490    -392.139    -156.065
  O     -288.086    -388.124    -155.409
  O     -288.521    -385.841    -156.495
  H     -287.991    -392.019    -156.407
  H     -287.595    -385.686    -156.220
  H     -295.526    -392.358    -156.653
  H     -293.542    -391.066    -155.904
  H     -290.779    -392.544    -154.414
  H     -289.964    -392.879    -157.105
  H     -290.983    -390.780    -157.739
  H     -289.660    -389.622    -155.213
  H     -295.241    -396.034    -157.184
  H     -291.984    -388.710    -156.964
  H     -296.370    -394.707    -157.132
  H     -291.736    -388.133    -155.301
  P     -288.869    -390.117    -159.272
  C     -287.964    -392.527    -159.218
  O     -288.946    -391.648    -159.756
  O     -287.703    -389.351    -159.798
  O     -290.284    -389.538    -159.755
  H     -290.321    -388.556    -159.620
  H     -288.114    -393.512    -159.609
  H     -288.051    -392.550    -158.152
  H     -286.989    -392.180    -159.489

 6  7  8  9  10  11  12  13  14  15  16  26  30  31  32  33  35 0
 6-311+G(2d,p)
 ****
 37  38 0
 6-311+G(2d,p)
 ****
 1  2  3  4  5  17  18  19  20  21  22  23  24  25 0
 3-21G
 ****
 27  28  29  34  36  39  40  41  42  43  44  45  46 0
 3-21G
 ****


