%nproc=1
%NoSave
%Mem=1900MB
#P OB98/GEN NMR

erre ene a

0 1
  C     -897.610     612.972    -234.058
  O     -898.350     612.519    -235.173
  H     -897.500     612.146    -233.352
  H     -898.140     613.794    -233.556
  H     -896.620     613.307    -234.384
  P     -898.670     613.596    -236.320
  C     -897.800     612.194    -238.290
  O     -897.560     613.310    -237.450
  C     -896.530     611.334    -238.398
  O     -896.150     610.916    -237.055
  C     -896.720     610.066    -239.238
  O     -895.540     609.812    -239.996
  C     -896.900     608.971    -238.190
  O     -896.540     607.685    -238.696
  C     -896.020     609.485    -237.040
  N     -894.980     606.042    -233.426
  C     -894.300     606.438    -234.516
  N     -894.640     607.372    -235.434
  C     -895.820     607.965    -235.081
  C     -896.610     607.667    -234.006
  C     -896.160     606.648    -233.152
  N     -896.870     606.222    -232.038
  N     -897.750     608.465    -234.015
  C     -897.620     609.221    -235.087
  N     -896.480     608.950    -235.769
  O     -898.770     615.013    -235.861
  O     -900.000     612.993    -236.976
  H     -896.630     607.036    -237.979
  H     -899.920     612.027    -237.107
  H     -893.350     605.923    -234.699
  H     -898.340     609.976    -235.404
  H     -894.970     609.201    -237.167
  H     -897.970     608.924    -237.887
  H     -897.580     610.128    -239.914
  H     -895.710     611.952    -238.795
  H     -898.090     612.528    -239.294
  H     -896.470     605.496    -231.465
  H     -897.730     606.674    -231.806
  H     -898.620     611.616    -237.872
  P     -895.420     610.445    -241.459
  C     -893.250     611.843    -241.447
  O     -894.670     611.864    -241.359
  O     -896.670     610.423    -242.281
  O     -894.300     609.514    -242.140
  H     -894.530     609.376    -243.093
  H     -892.873     612.841    -241.368
  H     -892.957     611.425    -242.387
  H     -892.852     611.247    -240.652

 6  7  8  9  10  11  12  13  14  15  25  28  32  33  34  35 0
 6-311+G(2d,p)
 ****
 36  39  40 0
 6-311+G(2d,p)
 ****
 1  2  3  4  5  16  17  18  19  20  21  22  23  24 0
 3-21G
 ****
 26  27  29  30  31  37  38  41  42  43  44  45  46  47 0
 3-21G
 ****
 48 0
 3-21G
 ****


