%nproc=1
%NoSave
%Mem=1900MB
#P OB98/GEN NMR

erre ene a

0 1
  C       23.136      81.991     -67.689
  O       22.855      80.768     -68.344
  H       24.024      81.857     -67.064
  H       22.295      82.277     -67.051
  H       23.334      82.777     -68.422
  P       21.563      80.751     -69.298
  C       19.137      81.606     -68.948
  O       20.303      81.055     -68.348
  C       17.882      80.987     -68.338
  O       17.796      79.581     -68.668
  C       17.806      81.083     -66.821
  O       17.314      82.349     -66.410
  C       16.846      79.947     -66.498
  O       15.473      80.342     -66.700
  C       17.264      78.875     -67.515
  N       18.046      75.118     -64.233
  C       16.895      75.819     -64.529
  N       15.797      75.505     -63.801
  N       16.822      76.748     -65.445
  C       18.004      76.976     -66.066
  C       19.209      76.339     -65.875
  C       19.264      75.289     -64.880
  O       20.237      74.587     -64.616
  N       20.173      76.840     -66.713
  C       19.565      77.801     -67.378
  N       18.249      77.935     -67.010
  O       21.384      79.199     -69.656
  O       21.663      81.589     -70.528
  H       15.274      81.103     -66.132
  H       20.991      79.120     -70.545
  H       18.034      74.401     -63.530
  H       20.029      78.424     -68.129
  H       16.408      78.282     -67.864
  H       16.929      79.631     -65.454
  H       15.871      75.063     -62.894
  H       18.784      80.873     -66.367
  H       14.955      76.028     -63.996
  H       17.015      81.482     -68.800
  H       19.156      81.397     -70.025
  H       19.132      82.691     -68.795
  P       18.083      83.096     -65.214
  C       18.689      82.384     -62.781
  O       17.809      82.232     -63.889
  O       17.205      84.414     -64.979
  O       19.511      83.417     -65.493
  H       17.720      85.073     -64.469
  H       18.372      81.744     -61.984
  H       18.673      83.401     -62.450
  H       19.683      82.120     -63.076

 6  7  8  9  10  11  12  13  14  15  26  29  33  34 0
 6-311+G(2d,p)
 ****
 36  38  39  40  41 0
 6-311+G(2d,p)
 ****
 1  2  3  4  5  16  17  18  19  20  21  22  23  24  25 0
 3-21G
 ****
 27  28  30  31  32  35  37  42  43  44  45  46  47 0
 3-21G
 ****
 48  49 0
 3-21G
 ****


