%nproc=1
%NoSave
%Mem=1900MB
#P OB98/GEN NMR

erre ene a

0 1
  C     -666.263     558.005     190.923
  O     -665.403     556.955     190.544
  P     -663.822     556.981     190.790
  C     -663.410     558.095     188.473
  O     -663.180     558.146     189.878
  C     -662.160     558.476     187.646
  O     -661.668     559.755     188.092
  C     -661.044     557.470     187.893
  O     -661.014     556.256     187.172
  C     -659.759     558.294     187.835
  O     -659.101     558.205     186.569
  C     -660.237     559.718     188.109
  N     -656.204     561.297     190.754
  C     -656.314     561.069     189.396
  N     -655.169     561.093     188.698
  N     -657.459     560.827     188.794
  C     -658.511     560.752     189.642
  C     -658.529     560.962     191.003
  C     -657.273     561.274     191.655
  O     -657.113     561.401     192.867
  N     -659.759     560.722     191.543
  C     -660.489     560.320     190.522
  N     -659.768     560.283     189.364
  O     -663.119     555.653     190.848
  O     -663.749     557.634     192.268
  H     -659.692     558.580     185.884
  H     -662.988     557.228     192.721
  H     -655.293     561.391     191.184
  H     -661.540     560.020     190.578
  H     -659.905     560.391     187.301
  H     -659.040     557.929     188.578
  H     -654.260     561.121     189.146
  H     -661.123     557.145     188.947
  H     -655.190     560.764     187.735
  H     -662.415     558.622     186.591
  H     -664.249     558.769     188.251
  H     -663.725     557.089     188.191
  P     -660.538     554.830     187.736
  C     -658.107     554.637     186.947
  O     -658.964     554.904     188.041
  O     -660.606     553.856     186.452
  O     -661.373     554.302     188.850
  H     -660.695     552.927     186.751
  H     -657.115     554.413     187.317
  H     -658.059     555.535     186.303
  H     -658.478     553.798     186.357
  H     -667.269     557.757     190.655
  H     -665.971     558.904     190.421
  H     -666.202     558.152     191.981

 3  4  5  6  7  8  9  10  11  12  23  26  30  31 0
 6-311+G(2d,p)
 ****
 33  35  36  37  38 0
 6-311+G(2d,p)
 ****
 1  2  13  14  15  16  17  18  19  20  21  22  24  25 0
 3-21G
 ****
 27  28  29  32  34  39  40  41  42  43  44  45  46  47  48  49 0
 3-21G
 ****


