%nproc=1
%NoSave
%Mem=1900MB
#P OB98/GEN NMR

erre ene a

0 1
  C      -65.159      -3.248    -203.058
  O      -64.018      -2.421    -203.176
  H      -65.146      -3.725    -202.076
  H      -65.144      -4.022    -203.830
  H      -66.070      -2.650    -203.148
  P      -63.862      -1.613    -204.553
  C      -64.384       0.849    -205.230
  O      -64.091      -0.068    -204.188
  C      -65.135       2.066    -204.676
  O      -66.532       1.699    -204.471
  C      -64.603       2.562    -203.322
  O      -64.859       3.974    -203.237
  C      -65.503       1.820    -202.346
  O      -65.407       2.369    -201.053
  C      -66.834       1.955    -203.081
  N      -70.755       1.347    -199.857
  C      -69.978       2.416    -200.135
  N      -68.961       2.505    -201.016
  C      -68.786       1.339    -201.662
  C      -69.506       0.168    -201.493
  C      -70.532       0.195    -200.534
  N      -71.321      -0.894    -200.242
  N      -69.031      -0.822    -202.335
  C      -68.045      -0.254    -202.999
  N      -67.856       1.046    -202.622
  O      -65.180      -2.014    -205.366
  O      -62.619      -1.898    -205.327
  H      -65.682       3.310    -201.053
  H      -64.987      -2.755    -205.969
  H      -70.201       3.319    -199.575
  H      -67.433      -0.738    -203.752
  H      -67.236       2.972    -203.010
  H      -65.206       0.769    -202.266
  H      -63.535       2.376    -203.181
  H      -65.126       2.865    -205.427
  H      -65.003       0.340    -205.978
  H      -63.452       1.178    -205.700
  H      -72.026      -0.797    -199.530
  H      -71.156      -1.764    -200.727
  P      -63.786       5.003    -203.847
  C      -63.895       7.345    -205.008
  O      -64.530       6.385    -204.176
  O      -63.546       4.400    -205.315
  O      -62.496       5.112    -203.103
  H      -62.648       4.632    -205.619
  H      -64.531       8.198    -205.118
  H      -63.706       6.915    -205.969
  H      -62.969       7.646    -204.563

 6  7  8  9  10  11  12  13  14  15  25  28  32  33  34  35 0
 6-311+G(2d,p)
 ****
 36  37  40 0
 6-311+G(2d,p)
 ****
 1  2  3  4  5  16  17  18  19  20  21  22  23  24 0
 3-21G
 ****
 26  27  29  30  31  38  39 41  42  43  44  45  46  47  48 0
 3-21G
 ****


