%nproc=1
%NoSave
%Mem=1900MB
#P OB98/GEN NMR

erre ene a

0 1
  C      334.389      88.276      78.973
  O      333.246      88.140      78.153
  H      334.148      88.002      80.004
  H      335.169      87.606      78.604
  H      334.759      89.303      78.937
  P      331.963      89.017      78.552
  C      330.345      87.306      77.460
  O      330.802      88.653      77.499
  C      329.697      87.017      76.108
  O      328.544      87.883      75.960
  C      330.617      87.236      74.897
  O      330.723      86.029      74.132
  C      329.892      88.273      74.053
  O      329.959      88.008      72.652
  C      328.458      88.210      74.569
  N      325.347      90.787      71.463
  C      325.557      89.460      71.620
  N      326.318      88.834      72.536
  C      326.884      89.725      73.370
  C      326.744      91.101      73.351
  C      325.945      91.639      72.327
  N      325.779      92.990      72.133
  N      327.485      91.683      74.364
  C      328.094      90.675      74.957
  N      327.778      89.476      74.378
  O      332.391      90.504      78.138
  O      331.561      88.936      79.986
  H      329.468      88.726      72.208
  H      332.190      91.117      78.871
  H      325.047      88.816      70.906
  H      328.808      90.758      75.770
  H      327.874      87.425      74.067
  H      330.340      89.258      74.238
  H      331.614      87.585      75.178
  H      329.325      85.983      76.120
  H      329.605      87.148      78.251
  H      325.287      93.287      71.308
  H      326.311      93.631      72.708
  H      331.194      86.638      77.637
  P      332.127      85.767      73.392
  C      332.181      84.698      71.019
  O      331.929      84.516      72.407
  O      333.045      85.170      74.565
  O      332.729      86.989      72.781
  H      333.985      85.360      74.382
  H      332.005      83.778      70.501
  H      333.198      84.998      70.878
  H      331.529      85.454      70.634

 6  7  8  9  10  11  12  13  14  15  25  28  32  33  34  35 0
 6-311+G(2d,p)
 ****
 36  39  40 0
 6-311+G(2d,p)
 ****
 1  2  3  4  5  16  17  18  19  20  21  22  23  24 0
 3-21G
 ****
 26  27  29  30  31  37  38  41  42  43  44  45  46  47  48 0
 3-21G
 ****


