%nproc=1
%NoSave
%Mem=1900MB
#P OB98/GEN NMR

erre ene a

0 1
  C     -712.439     333.360     133.901
  O     -711.190     333.239     134.556
  H     -712.854     332.364     133.747
  H     -712.297     333.838     132.928
  H     -713.147     333.943     134.498
  P     -710.505     334.552     135.167
  C     -709.136     334.920     133.004
  O     -709.091     334.711     134.411
  C     -707.915     335.722     132.540
  O     -707.984     337.058     133.108
  C     -706.575     335.110     132.958
  O     -705.611     335.445     131.942
  C     -706.271     335.867     134.234
  O     -704.914     335.767     134.599
  C     -706.771     337.266     133.863
  N     -706.991     338.112     135.037
  C     -706.006     339.050     135.329
  O     -704.969     339.160     134.661
  N     -706.211     339.825     136.419
  C     -707.270     339.724     137.289
  O     -707.391     340.432     138.283
  C     -708.256     338.690     136.956
  C     -708.084     337.940     135.867
  O     -710.424     334.609     136.655
  O     -711.358     335.765     134.562
  H     -704.603     334.839     134.518
  H     -711.355     336.514     135.186
  H     -705.511     340.517     136.638
  H     -709.107     338.577     137.623
  H     -708.803     337.177     135.590
  H     -706.052     337.771     133.210
  H     -706.859     335.460     135.069
  H     -706.619     334.027     133.098
  H     -707.975     335.841     131.452
  H     -710.057     335.477     132.777
  H     -709.166     333.956     132.500
  P     -705.449     334.579     130.604
  C     -703.774     332.883     131.580
  O     -703.991     333.901     130.604
  O     -705.777     335.329     129.351
  O     -706.438     333.338     130.797
  H     -706.749     333.019     129.928
  H     -702.777     332.507     131.487
  H     -704.472     332.087     131.426
  H     -703.911     333.293     132.559

 6  7  8  9  10  11  12  13  14  15  16  26  31  32  33  34  35 0
 6-311+G(2d,p)
 ****
 36  37 0
 6-311+G(2d,p)
 ****
 1  2  3  4  5  17  18  19  20  21  22  23  24  25 0
 3-21G
 ****
 27  28  29  30  38  39  40  41  42  43  44  45 0
 3-21G
 ****


