%nproc=1
%NoSave
%Mem=1900MB
#P OB98/GEN NMR

erre ene a

0 1
  C      124.887    -198.900      51.157
  O      124.105    -198.451      50.055
  P      122.613    -197.939      50.333
  C      122.853    -195.595      49.128
  O      122.571    -196.344      50.289
  C      123.917    -194.535      49.456
  O      125.159    -195.170      49.830
  C      124.226    -193.609      48.283
  O      123.337    -192.508      48.227
  C      125.662    -193.215      48.565
  O      125.712    -192.209      49.593
  C      126.245    -194.549      49.086
  N      126.754    -195.521      48.094
  C      128.041    -195.377      47.581
  O      128.813    -194.475      47.894
  N      128.439    -196.331      46.682
  C      127.772    -197.480      46.376
  O      128.205    -198.328      45.607
  C      126.486    -197.658      47.057
  C      126.039    -196.687      47.857
  O      122.373    -198.286      51.873
  O      121.574    -198.558      49.450
  H      125.341    -192.603      50.401
  H      121.667    -198.952      51.965
  H      129.340    -196.203      46.247
  H      125.945    -198.577      46.881
  H      125.085    -196.809      48.366
  H      127.062    -194.363      49.792
  H      126.130    -192.775      47.688
  H      124.210    -194.170      47.344
  H      123.567    -193.946      50.312
  H      121.951    -195.112      48.747
  H      123.214    -196.262      48.339
  P      122.456    -192.260      46.914
  C      120.091    -193.094      47.452
  O      121.353    -193.426      46.907
  O      123.213    -192.079      45.642
  O      121.587    -190.965      47.285
  H      122.011    -190.148      46.935
  H      119.394    -193.909      47.244
  H      119.709    -192.175      47.000
  H      120.176    -192.968      48.535
  H      125.851    -199.206      50.809
  H      124.398    -199.727      51.628
  H      124.999    -198.104      51.863

 3  4  5  6  7  8  9  10  11  12  13  23  28  29  30  31  32 0
 6-311+G(2d,p)
 ****
 33  34 0
 6-311+G(2d,p)
 ****
 1  2  14  15  16  17  18  19  20  21  22  24  25  26  27 0
 3-21G
 ****
 35  36  37  38  39  40  41  42  43  44  45 0
 3-21G
 ****


