%nproc=1
%NoSave
%Mem=1900MB
#P OB98/GEN NMR

erre ene a

0 1
  C     -898.600     455.397     364.615
  O     -899.110     454.103     364.841
  H     -898.920     455.737     363.632
  H     -897.500     455.373     364.628
  H     -898.960     456.110     365.364
  P     -899.030     453.483     366.307
  C     -897.060     451.840     366.084
  O     -897.490     453.104     366.568
  C     -895.610     451.935     365.566
  O     -894.740     452.358     366.684
  C     -895.060     450.610     365.001
  O     -894.170     450.901     363.903
  C     -894.280     450.085     366.187
  O     -893.330     449.129     365.821
  C     -893.700     451.385     366.748
  N     -893.190     451.197     368.112
  C     -891.820     450.993     368.257
  O     -891.030     450.945     367.298
  N     -891.400     450.774     369.533
  C     -892.190     450.621     370.646
  O     -891.730     450.327     371.729
  C     -893.630     450.796     370.411
  C     -894.050     451.076     369.178
  O     -900.000     452.370     366.609
  O     -899.240     454.741     367.292
  H     -892.570     449.559     365.357
  H     -899.530     454.445     368.176
  H     -890.390     450.620     369.657
  H     -894.290     450.691     371.257
  H     -895.110     451.215     368.970
  H     -892.860     451.752     366.105
  H     -894.960     449.613     366.914
  H     -895.850     449.934     364.667
  H     -895.570     452.734     364.816
  H     -897.730     451.533     365.265
  H     -897.110     451.099     366.894
  P     -894.670     450.896     362.387
  C     -894.600     448.338     362.207
  O     -895.410     449.514     362.040
  O     -893.630     451.300     361.391
  O     -895.870     451.978     362.364
  H     -895.780     452.554     361.593
  H     -895.174     447.471     361.954
  H     -894.278     448.268     363.225
  H     -893.745     448.400     361.566

 6  7  8  9  10  11  12  13  14  15  16  26  31  32  33  34  35 0
 6-311+G(2d,p)
 ****
 36  37 0
 6-311+G(2d,p)
 ****
 1  2  3  4  5  17  18  19  20  21  22  23  24  25 0
 3-21G
 ****
 27  28  29  30  38  39  40  41  42  43  44  45 0
 3-21G
 ****


