%nproc=1
%NoSave
%Mem=1900MB
#P OB98/GEN NMR

erre ene a

0 1
  C      364.759     162.112     142.419
  O      365.924     162.398     143.176
  P      366.817     161.149     143.651
  C      365.962     161.283     146.109
  O      366.082     160.509     144.923
  C      365.131     160.537     147.149
  O      363.735     160.563     146.783
  C      365.481     159.061     147.297
  O      366.685     158.892     148.029
  C      364.231     158.546     148.000
  O      364.286     158.868     149.401
  C      363.122     159.358     147.311
  N      358.645     157.835     145.342
  C      358.949     158.521     146.469
  N      360.164     158.869     146.934
  C      361.132     158.444     146.103
  C      360.975     157.717     144.937
  C      359.659     157.413     144.554
  N      359.354     156.711     143.407
  N      362.199     157.439     144.365
  C      363.082     157.998     145.171
  N      362.484     158.628     146.226
  O      368.108     161.845     144.284
  O      367.174     160.183     142.564
  H      365.080     158.432     149.766
  H      368.910     161.306     144.127
  H      358.099     158.832     147.072
  H      364.151     157.976     145.027
  H      362.335     159.669     148.007
  H      364.109     157.461     147.916
  H      365.579     158.588     146.311
  H      365.245     161.054     148.110
  H      365.465     162.231     145.875
  H      358.398     156.407     143.285
  H      360.115     156.274     142.898
  H      366.963     161.502     146.489
  P      367.505     157.535     147.785
  C      366.223     156.363     149.677
  O      366.504     156.386     148.292
  O      368.587     157.597     148.967
  O      368.054     157.366     146.409
  H      368.179     157.802     149.824
  H      365.495     155.571     149.874
  H      365.802     157.322     149.996
  H      367.133     156.149     150.243
  H      364.262     163.026     142.170
  H      364.102     161.494     142.995
  H      365.034     161.600     141.521

 3  4  5  6  7  8  9  10  11  12  22  25  29  30  31  32 0
 6-311+G(2d,p)
 ****
 33  36  37 0
 6-311+G(2d,p)
 ****
 1  2  13  14  15  16  17  18  19  20  21  23  24  26 0
 3-21G
 ****
 27  28  34  35  38  39  40  41  42  43  44  45  46  47  48 0
 3-21G
 ****


