%nproc=1
%NoSave
%Mem=1900MB
#P OB98/GEN NMR

erre ene a

0 1
  C     -337.678    -397.004    -157.568
  O     -338.473    -396.131    -156.786
  H     -338.184    -397.970    -157.637
  H     -336.706    -397.148    -157.088
  H     -337.541    -396.600    -158.576
  P     -338.024    -394.592    -156.757
  C     -339.784    -394.184    -158.657
  O     -338.479    -393.936    -158.154
  C     -340.135    -393.165    -159.739
  O     -341.350    -393.534    -160.420
  C     -340.427    -391.770    -159.209
  O     -339.266    -391.100    -158.774
  C     -341.081    -391.135    -160.433
  O     -340.099    -390.623    -161.343
  C     -341.838    -392.335    -161.057
  N     -343.275    -392.184    -160.933
  C     -343.988    -392.207    -162.143
  O     -343.391    -392.371    -163.207
  N     -345.342    -392.010    -162.109
  C     -345.937    -391.781    -160.979
  N     -347.276    -391.559    -161.017
  C     -345.221    -391.740    -159.683
  C     -343.904    -391.947    -159.729
  O     -336.433    -394.693    -156.904
  O     -338.479    -393.832    -155.558
  H     -339.754    -389.799    -160.941
  H     -336.143    -395.276    -157.629
  H     -345.764    -391.560    -158.766
  H     -343.300    -391.938    -158.833
  H     -341.590    -392.422    -162.124
  H     -341.725    -390.298    -160.157
  H     -341.181    -391.821    -158.411
  H     -339.314    -393.149    -160.472
  H     -347.716    -391.541    -161.932
  H     -340.524    -394.149    -157.845
  H     -347.825    -391.293    -160.213
  H     -339.796    -395.199    -159.071
  P     -339.356    -389.813    -157.818
  C     -339.327    -391.201    -155.645
  O     -340.070    -390.299    -156.460
  O     -339.969    -388.601    -158.431
  O     -337.844    -389.605    -157.340
  H     -337.459    -390.365    -156.865
  H     -339.900    -391.451    -154.777
  H     -338.410    -390.739    -155.346
  H     -339.114    -392.090    -156.200

 6  7  8  9  10  11  12  13  14  15  16  26  30  31  32  33  35 0
 6-311+G(2d,p)
 ****
 37  38 0
 6-311+G(2d,p)
 ****
 1  2  3  4  5  17  18  19  20  21  22  23  24  25 0
 3-21G
 ****
 27  28  29  34  36  39  40  41  42  43  44  45  46 0
 3-21G
 ****


