%nproc=1
%NoSave
%Mem=1900MB
#P OB98/GEN NMR

erre ene a

0 1
  C     -252.614     246.578     -26.823
  O     -251.980     246.132     -25.637
  H     -253.178     245.745     -27.249
  H     -251.876     246.916     -27.556
  H     -253.308     247.389     -26.590
  P     -250.869     247.082     -24.971
  C     -249.004     245.548     -25.885
  O     -249.541     246.867     -25.853
  C     -247.481     245.566     -25.837
  O     -246.943     246.464     -26.834
  C     -246.903     246.058     -24.519
  O     -247.141     245.214     -23.416
  C     -245.470     246.388     -24.905
  O     -244.626     245.238     -24.910
  C     -245.657     246.911     -26.353
  N     -245.523     248.363     -26.440
  C     -244.543     248.931     -25.639
  O     -243.830     248.288     -24.868
  N     -244.430     250.301     -25.719
  C     -245.213     251.127     -26.473
  O     -245.069     252.342     -26.487
  C     -246.258     250.465     -27.273
  C     -246.366     249.137     -27.224
  O     -250.656     246.895     -23.497
  O     -251.336     248.559     -25.372
  H     -243.730     245.541     -25.132
  H     -250.877     249.242     -24.818
  H     -243.710     250.729     -25.155
  H     -246.902     251.093     -27.872
  H     -247.125     248.622     -27.809
  H     -244.904     246.466     -27.020
  H     -245.014     247.121     -24.231
  H     -247.382     247.016     -24.271
  H     -247.118     244.557     -26.075
  H     -249.331     245.075     -26.823
  H     -249.403     244.970     -25.042
  P     -247.324     245.737     -21.919
  C     -244.755     245.763     -21.413
  O     -245.978     246.491     -21.474
  O     -247.951     244.794     -20.948
  O     -248.345     246.975     -22.125
  H     -248.914     247.012     -21.333
  H     -243.967     246.416     -21.101
  H     -244.528     245.366     -22.380
  H     -244.852     244.961     -20.712

 6  7  8  9  10  11  12  13  14  15  16  26  31  32  33  34  35 0
 6-311+G(2d,p)
 ****
 36  37 0
 6-311+G(2d,p)
 ****
 1  2  3  4  5  17  18  19  20  21  22  23  24  25 0
 3-21G
 ****
 27  28  29  30  38  39  40  41  42  43  44  45 0
 3-21G
 ****


