%nproc=1
%NoSave
%Mem=1900MB
#P OB98/GEN NMR

erre ene a

0 1
  C     -981.098    -877.435    -893.440
  O     -981.183    -876.826    -894.710
  H     -981.995    -877.153    -892.890
  H     -980.203    -877.074    -892.930
  H     -981.063    -878.524    -893.520
  P     -980.171    -877.323    -895.870
  C     -981.854    -878.312    -897.550
  O     -980.846    -878.572    -896.600
  C     -983.263    -878.557    -896.970
  O     -983.494    -877.559    -895.870
  C     -984.370    -878.340    -898.030
  O     -985.556    -879.103    -897.760
  C     -984.692    -876.829    -897.870
  O     -986.006    -876.497    -898.320
  C     -984.525    -876.660    -896.330
  N     -986.145    -872.207    -894.470
  C     -986.924    -873.309    -894.900
  N     -988.229    -873.209    -894.840
  N     -986.373    -874.417    -895.430
  C     -984.995    -874.317    -895.470
  C     -984.157    -873.305    -895.100
  C     -984.765    -872.106    -894.530
  O     -984.177    -871.108    -894.160
  N     -982.841    -873.615    -895.310
  C     -982.897    -874.801    -895.890
  N     -984.176    -875.314    -895.940
  O     -978.971    -878.001    -895.060
  O     -979.659    -876.253    -896.790
  H     -986.628    -877.063    -897.840
  H     -978.153    -878.026    -895.600
  H     -986.642    -871.410    -894.090
  H     -982.003    -875.370    -896.200
  H     -985.455    -876.925    -895.830
  H     -983.967    -876.242    -898.440
  H     -988.697    -872.281    -894.660
  H     -984.011    -878.519    -899.050
  H     -988.789    -873.820    -895.440
  H     -983.307    -879.562    -896.530
  H     -981.694    -878.982    -898.410
  H     -981.763    -877.277    -897.940
  P     -985.553    -880.668    -898.160
  C     -986.163    -881.883    -895.880
  O     -985.180    -881.541    -896.870
  O     -984.227    -880.815    -899.100
  O     -986.767    -881.116    -898.880
  H     -984.477    -881.055    -900.000
  H     -985.705    -882.466    -895.109
  H     -986.947    -882.450    -896.337
  H     -986.570    -880.988    -895.457

 6  7  8  9  10  11  12  13  14  15  26  29  33  34 0
 6-311+G(2d,p)
 ****
 36  38  39  40  41 0
 6-311+G(2d,p)
 ****
 1  2  3  4  5  16  17  18  19  20  21  22  23  24  25 0
 3-21G
 ****
 27  28  30  31  32  35  37  42  43  44  45  46  47 0
 3-21G
 ****
 48  49 0
 3-21G
 ****


