%nproc=1
%NoSave
%Mem=1900MB
#P OB98/GEN NMR

erre ene a

0 1
  C      -42.104     -58.198      85.657
  O      -42.738     -57.295      86.538
  P      -41.901     -56.228      87.393
  C      -43.499     -54.289      86.848
  O      -42.962     -55.119      87.866
  C      -44.783     -53.598      87.312
  O      -45.866     -54.568      87.366
  C      -44.687     -52.933      88.691
  O      -45.522     -51.771      88.637
  C      -45.295     -53.982      89.601
  O      -45.720     -53.447      90.849
  C      -46.410     -54.533      88.702
  N      -46.871     -55.845      89.145
  C      -48.172     -55.916      89.650
  O      -48.844     -54.892      89.779
  N      -48.660     -57.135      90.050
  C      -47.881     -58.170      90.040
  N      -48.422     -59.352      90.443
  C      -46.464     -58.112      89.634
  C      -46.033     -56.935      89.188
  O      -40.685     -55.687      86.721
  O      -41.583     -57.003      88.756
  H      -46.128     -54.171      91.373
  H      -40.844     -57.649      88.622
  H      -45.839     -58.989      89.697
  H      -45.011     -56.794      88.867
  H      -47.269     -53.850      88.690
  H      -44.555     -54.763      89.810
  H      -43.668     -52.665      88.979
  H      -45.054     -52.851      86.555
  H      -49.401     -59.351      90.699
  H      -43.732     -54.920      85.985
  H      -47.927     -60.230      90.395
  H      -42.752     -53.553      86.532
  P      -44.903     -50.296      88.725
  C      -47.225     -49.417      88.103
  O      -46.123     -49.292      88.983
  O      -44.007     -49.917      87.592
  O      -44.115     -50.279      90.122
  H      -43.505     -49.518      90.141
  H      -48.086     -48.899      88.535
  H      -47.485     -50.469      87.949
  H      -46.981     -48.960      87.142
  H      -42.841     -58.817      85.190
  H      -41.419     -58.810      86.206
  H      -41.571     -57.651      84.908

 3  4  5  6  7  8  9  10  11  12  13  23  27  28  29  30  32 0
 6-311+G(2d,p)
 ****
 34  35 0
 6-311+G(2d,p)
 ****
 1  2  14  15  16  17  18  19  20  21  22  24  25  26 0
 3-21G
 ****
 31  33  36  37  38  39  40  41  42  43  44  45  46 0
 3-21G
 ****


