%nproc=1
%NoSave
%Mem=1900MB
#P OB98/GEN NMR

erre ene a

0 1
  C     -762.807     -76.053     411.904
  O     -762.391     -76.863     410.824
  H     -761.966     -75.916     412.585
  H     -763.619     -76.548     412.444
  H     -763.139     -75.070     411.558
  P     -763.334     -76.984     409.536
  C     -764.358     -78.971     410.823
  O     -763.946     -78.469     409.559
  C     -765.350     -80.124     410.651
  O     -766.540     -79.629     409.977
  C     -764.807     -81.296     409.818
  O     -765.424     -82.493     410.308
  C     -765.329     -80.962     408.437
  O     -765.295     -82.084     407.580
  C     -766.717     -80.415     408.782
  N     -767.297     -79.633     407.688
  C     -768.008     -80.342     406.730
  O     -768.135     -81.566     406.750
  N     -768.540     -79.605     405.709
  C     -768.380     -78.264     405.528
  O     -768.851     -77.654     404.573
  C     -767.581     -77.570     406.550
  C     -767.086     -78.274     407.571
  O     -762.713     -76.587     408.239
  O     -764.606     -76.077     409.891
  H     -765.877     -81.934     406.806
  H     -764.987     -75.699     409.075
  H     -769.070     -80.102     405.009
  H     -767.425     -76.506     406.430
  H     -766.494     -77.792     408.341
  H     -767.408     -81.232     409.017
  H     -764.717     -80.180     407.971
  H     -763.719     -81.384     409.859
  H     -765.668     -80.462     411.645
  H     -764.835     -78.150     411.373
  H     -763.483     -79.313     411.383
  P     -764.875     -83.270     411.602
  C     -762.656     -84.348     410.847
  O     -764.040     -84.555     411.116
  O     -765.924     -83.568     412.624
  O     -763.748     -82.307     412.208
  H     -763.679     -82.446     413.174
  H     -762.212     -85.270     410.534
  H     -762.168     -84.000     411.734
  H     -762.549     -83.619     410.072

 6  7  8  9  10  11  12  13  14  15  16  26  31  32  33  34  35 0
 6-311+G(2d,p)
 ****
 36  37 0
 6-311+G(2d,p)
 ****
 1  2  3  4  5  17  18  19  20  21  22  23  24  25 0
 3-21G
 ****
 27  28  29  30  38  39  40  41  42  43  44  45 0
 3-21G
 ****


