%nproc=1
%NoSave
%Mem=1900MB
#P OB98/GEN NMR

erre ene a

0 1
  C     -301.128     562.010    -351.894
  O     -300.540     563.279    -351.668
  H     -300.359     561.244    -351.783
  H     -301.532     561.965    -352.912
  H     -301.927     561.824    -351.165
  P     -301.537     564.535    -351.616
  C     -299.410     566.050    -351.933
  O     -300.760     565.776    -352.285
  C     -299.014     567.436    -352.443
  O     -299.910     568.452    -351.954
  C     -297.645     567.893    -351.956
  O     -296.582     567.196    -352.560
  C     -297.708     569.373    -352.317
  O     -297.450     569.568    -353.719
  C     -299.183     569.710    -351.980
  N     -299.316     570.436    -350.734
  C     -299.219     571.834    -350.833
  O     -299.046     572.366    -351.926
  N     -299.289     572.582    -349.687
  C     -299.476     571.995    -348.546
  N     -299.530     572.795    -347.434
  C     -299.615     570.537    -348.395
  C     -299.514     569.827    -349.512
  O     -301.540     564.916    -350.062
  O     -302.892     564.301    -352.201
  H     -296.652     569.045    -353.924
  H     -300.653     565.051    -349.692
  H     -299.770     570.087    -347.419
  H     -299.603     568.747    -349.496
  H     -299.633     570.315    -352.785
  H     -296.971     569.966    -351.774
  H     -297.589     567.825    -350.859
  H     -299.070     567.427    -353.535
  H     -299.410     573.793    -347.572
  H     -298.740     565.286    -352.336
  H     -299.636     572.447    -346.494
  H     -299.346     566.014    -350.839
  P     -295.211     566.962    -351.781
  C     -294.667     565.321    -353.686
  O     -294.174     566.367    -352.858
  O     -295.313     566.164    -350.513
  O     -294.646     568.449    -351.562
  H     -294.494     568.942    -352.384
  H     -293.897     565.005    -354.358
  H     -295.507     565.675    -354.246
  H     -294.968     564.495    -353.076

 6  7  8  9  10  11  12  13  14  15  16  26  30  31  32  33  35 0
 6-311+G(2d,p)
 ****
 37  38 0
 6-311+G(2d,p)
 ****
 1  2  3  4  5  17  18  19  20  21  22  23  24  25 0
 3-21G
 ****
 27  28  29  34  36  39  40  41  42  43  44  45  46 0
 3-21G
 ****


