%nproc=1
%NoSave
%Mem=1900MB
#P OB98/GEN NMR

erre ene a

0 1
  C     -488.637      28.195     257.010
  O     -488.450      27.245     255.953
  P     -489.669      26.246     255.667
  C     -488.768      24.128     256.883
  O     -489.088      24.746     255.641
  C     -487.513      23.266     256.725
  O     -486.309      24.010     257.011
  C     -487.482      22.071     257.674
  O     -488.370      21.050     257.240
  C     -486.003      21.700     257.616
  O     -485.723      20.940     256.419
  C     -485.325      23.078     257.528
  N     -481.276      23.213     260.647
  C     -481.453      22.653     259.429
  N     -482.569      22.664     258.661
  C     -483.561      23.339     259.270
  C     -483.523      23.963     260.501
  C     -482.304      23.878     261.210
  N     -482.122      24.437     262.455
  N     -484.726      24.560     260.789
  C     -485.496      24.276     259.755
  N     -484.828      23.551     258.805
  O     -490.036      26.536     254.135
  O     -490.843      26.451     256.573
  H     -484.978      20.340     256.626
  H     -490.883      27.011     254.087
  H     -480.600      22.129     259.019
  H     -486.534      24.571     259.649
  H     -484.482      23.075     256.831
  H     -485.684      21.091     258.472
  H     -487.745      22.383     258.695
  H     -487.467      22.913     255.686
  H     -489.602      23.511     257.226
  H     -481.246      24.262     262.930
  H     -482.913      24.863     262.928
  H     -488.611      24.911     257.633
  P     -489.208      20.261     258.360
  C     -488.040      18.086     257.649
  O     -489.277      18.757     257.794
  O     -490.688      20.806     258.101
  O     -488.690      20.412     259.757
  H     -490.908      20.816     257.150
  H     -488.231      17.075     257.291
  H     -487.524      18.033     258.610
  H     -487.412      18.609     256.921
  H     -487.760      28.801     257.104
  H     -488.812      27.676     257.929
  H     -489.478      28.817     256.786

 3  4  5  6  7  8  9  10  11  12  22  25  29  30  31  32 0
 6-311+G(2d,p)
 ****
 33  36  37 0
 6-311+G(2d,p)
 ****
 1  2  13  14  15  16  17  18  19  20  21  23  24  26 0
 3-21G
 ****
 27  28  34  35  38  39  40  41  42  43  44  45  46  47  48 0
 3-21G
 ****


