%nproc=1
%NoSave
%Mem=1900MB
#P OB98/GEN NMR

erre ene a

0 1
  C      -54.454     109.341     -56.068
  O      -53.510     110.414     -56.122
  P      -52.669     110.703     -54.787
  C      -50.427     111.389     -55.905
  O      -51.547     111.793     -55.127
  C      -50.167     112.398     -57.022
  O      -51.246     112.420     -57.983
  C      -50.047     113.833     -56.524
  O      -48.796     114.052     -55.893
  C      -50.247     114.605     -57.824
  O      -49.033     114.615     -58.593
  C      -51.310     113.756     -58.542
  N      -54.524     117.488     -59.922
  C      -53.233     117.245     -60.238
  N      -52.445     116.229     -59.826
  C      -53.123     115.403     -59.014
  C      -54.440     115.519     -58.604
  C      -55.156     116.624     -59.092
  N      -56.467     116.881     -58.757
  N      -54.784     114.480     -57.763
  C      -53.683     113.762     -57.649
  N      -52.657     114.275     -58.393
  O      -51.839     109.352     -54.576
  O      -53.520     111.018     -53.600
  H      -48.443     115.289     -58.198
  H      -52.192     108.856     -53.816
  H      -52.771     117.962     -60.910
  H      -53.583     112.872     -57.041
  H      -51.115     113.669     -59.616
  H      -50.543     115.647     -57.663
  H      -50.862     114.061     -55.824
  H      -49.245     112.105     -57.540
  H      -50.603     110.399     -56.334
  H      -56.882     117.738     -59.088
  H      -56.921     116.295     -58.073
  H      -49.556     111.294     -55.245
  P      -48.753     114.029     -54.291
  C      -46.228     114.219     -54.719
  O      -47.323     114.673     -53.942
  O      -48.525     112.478     -53.994
  O      -49.928     114.657     -53.622
  H      -47.834     112.099     -54.568
  H      -45.329     114.757     -54.404
  H      -46.407     114.415     -55.778
  H      -46.074     113.148     -54.555
  H      -54.946     109.251     -57.014
  H      -55.178     109.541     -55.306
  H      -53.944     108.428     -55.843

 3  4  5  6  7  8  9  10  11  12  22  25  29  30  31  32 0
 6-311+G(2d,p)
 ****
 33  36  37 0
 6-311+G(2d,p)
 ****
 1  2  13  14  15  16  17  18  19  20  21  23  24  26 0
 3-21G
 ****
 27  28  34  35  38  39  40  41  42  43  44  45  46  47  48 0
 3-21G
 ****


