%nproc=1
%NoSave
%Mem=1900MB
#P OB98/GEN NMR

erre ene a

0 1
  C     -277.646      42.683     -16.715
  O     -277.255      41.348     -16.466
  H     -276.955      43.380     -16.230
  H     -277.629      42.858     -17.795
  H     -278.663      42.851     -16.347
  P     -277.118      40.923     -14.924
  C     -276.149      42.065     -12.806
  O     -276.203      42.044     -14.224
  C     -274.749      42.433     -12.336
  O     -273.815      41.394     -12.694
  C     -274.184      43.710     -12.950
  O     -274.705      44.874     -12.325
  C     -272.700      43.531     -12.656
  O     -272.428      43.910     -11.294
  C     -272.508      42.017     -12.829
  N     -268.179      41.110     -15.441
  C     -268.398      41.467     -14.156
  N     -269.573      41.702     -13.535
  C     -270.603      41.517     -14.375
  C     -270.534      41.150     -15.710
  C     -269.254      40.948     -16.248
  N     -269.041      40.600     -17.567
  N     -271.799      41.041     -16.250
  C     -272.619      41.338     -15.262
  N     -271.940      41.638     -14.108
  O     -276.154      39.640     -14.975
  O     -278.399      40.615     -14.226
  H     -272.646      44.857     -11.220
  H     -276.432      39.010     -14.284
  H     -267.508      41.582     -13.542
  H     -273.699      41.342     -15.332
  H     -271.875      41.601     -12.038
  H     -272.060      44.139     -13.301
  H     -274.339      43.730     -14.034
  H     -274.766      42.503     -11.240
  H     -276.409      41.073     -12.417
  H     -268.127      40.277     -17.841
  H     -269.853      40.472     -18.161
  H     -276.880      42.791     -12.435
  P     -275.186      46.073     -13.281
  C     -274.009      47.595     -15.025
  O     -273.862      46.600     -14.016
  O     -275.525      47.247     -12.246
  O     -276.349      45.756     -14.160
  H     -276.181      47.856     -12.640
  H     -273.047      47.845     -15.422
  H     -274.459      48.469     -14.601
  H     -274.631      47.218     -15.810

 6  7  8  9  10  11  12  13  14  15  25  28  32  33  34  35 0
 6-311+G(2d,p)
 ****
 36  39  40 0
 6-311+G(2d,p)
 ****
 1  2  3  4  5  16  17  18  19  20  21  22  23  24 0
 3-21G
 ****
 26  27  29  30  31  37  38  41  42  43  44  45  46  47  48 0
 3-21G
 ****


