%nproc=1
%NoSave
%Mem=1900MB
#P OB98/GEN NMR

erre ene a

0 1
  C      264.436     -31.078      85.758
  O      264.848     -30.051      86.642
  P      266.205     -29.267      86.313
  C      267.149     -30.733      88.236
  O      267.217     -29.495      87.539
  C      267.725     -30.597      89.649
  O      267.587     -31.853      90.357
  C      269.214     -30.224      89.669
  O      269.482     -29.393      90.810
  C      269.903     -31.551      89.904
  O      271.202     -31.372      90.480
  C      268.896     -32.237      90.824
  N      271.298     -36.152      92.939
  C      271.202     -34.843      93.368
  N      271.917     -34.521      94.472
  N      270.468     -33.942      92.783
  C      269.816     -34.404      91.689
  C      269.819     -35.685      91.172
  C      270.646     -36.671      91.826
  O      270.793     -37.837      91.475
  N      269.002     -35.779      90.075
  C      268.540     -34.554      89.896
  N      269.031     -33.681      90.829
  O      265.777     -27.731      86.463
  O      266.767     -29.536      84.959
  H      271.059     -31.049      91.393
  H      265.694     -27.320      85.583
  H      271.887     -36.815      93.418
  H      267.870     -34.250      89.101
  H      268.991     -31.888      91.860
  H      270.021     -32.091      88.957
  H      272.554     -35.162      94.930
  H      269.569     -29.724      88.760
  H      271.900     -33.563      94.781
  H      267.132     -29.852      90.195
  H      267.725     -31.484      87.688
  H      266.107     -31.067      88.286
  P      269.917     -27.877      90.486
  C      272.461     -28.207      90.032
  O      271.455     -27.766      90.924
  O      269.139     -27.031      91.603
  O      269.592     -27.431      89.103
  H      268.996     -26.115      91.292
  H      273.083     -27.353      89.749
  H      272.044     -28.660      89.125
  H      273.086     -28.943      90.541
  H      263.519     -31.504      86.109
  H      265.189     -31.837      85.717
  H      264.288     -30.669      84.780

 3  4  5  6  7  8  9  10  11  12  23  26  30  31 0
 6-311+G(2d,p)
 ****
 33  35  36  37  38 0
 6-311+G(2d,p)
 ****
 1  2  13  14  15  16  17  18  19  20  21  22  24  25 0
 3-21G
 ****
 27  28  29  32  34  39  40  41  42  43  44  45  46  47  48  49 0
 3-21G
 ****


