%nproc=1
%NoSave
%Mem=1900MB
#P OB98/GEN NMR

erre ene a

0 1
  C     -154.641    -306.391     169.961
  O     -153.953    -307.645     169.989
  P     -153.051    -307.945     171.288
  C     -154.897    -309.529     172.214
  O     -154.042    -308.420     172.458
  C     -155.938    -309.661     173.325
  O     -156.610    -308.411     173.558
  C     -157.047    -310.659     173.025
  O     -156.631    -311.997     173.260
  C     -158.104    -310.238     174.036
  O     -157.815    -310.823     175.318
  C     -157.924    -308.714     174.090
  N     -162.294    -306.148     174.234
  C     -161.586    -306.750     175.257
  N     -162.104    -306.626     176.497
  N     -160.474    -307.409     175.079
  C     -160.059    -307.428     173.789
  C     -160.672    -306.871     172.688
  C     -161.922    -306.168     172.896
  O     -162.605    -305.648     172.022
  N     -159.944    -307.087     171.546
  C     -158.880    -307.748     171.957
  N     -158.912    -307.991     173.308
  O     -152.603    -306.481     171.758
  O     -151.882    -308.832     171.025
  H     -157.746    -311.789     175.183
  H     -151.757    -306.529     172.241
  H     -163.151    -305.659     174.428
  H     -158.066    -308.068     171.320
  H     -157.955    -308.333     175.117
  H     -159.112    -310.566     173.760
  H     -162.918    -306.071     176.717
  H     -157.433    -310.523     172.006
  H     -161.579    -307.029     177.266
  H     -155.415    -309.955     174.248
  H     -154.309    -310.447     172.159
  H     -155.378    -309.398     171.240
  P     -156.103    -312.832     171.995
  C     -153.756    -313.180     173.046
  O     -154.514    -312.634     171.986
  O     -156.612    -311.966     170.749
  O     -156.590    -314.240     171.939
  H     -156.760    -312.544     169.977
  H     -154.095    -314.188     173.294
  H     -153.834    -312.535     173.925
  H     -152.706    -313.231     172.738
  H     -155.202    -306.312     169.053
  H     -153.930    -305.593     170.012
  H     -155.306    -306.330     170.797

 3  4  5  6  7  8  9  10  11  12  23  26  30  31  33  0
 6-311+G(2d,p)
 ****
 35  36  37  38 0
 6-311+G(2d,p)
 ****
 1  2  13  14  15  16  17  18  19  20  21  22  24  25  27  28  29 0
 3-21G
 ****
 32  34  39  40  41  42  43  44  45  46  47  48  49 0
 3-21G
 ****


