%nproc=1
%NoSave
%Mem=1900MB
#P OB98/GEN NMR

erre ene a

0 1
  C      -62.510      -5.915      24.892
  O      -62.789      -6.922      25.867
  P      -62.886      -8.429      25.321
  C      -64.596      -9.851      23.986
  O      -64.312      -8.607      24.608
  C      -65.851     -10.485      24.591
  O      -65.611     -11.034      25.900
  C      -67.003      -9.504      24.754
  O      -67.660      -9.315      23.513
  C      -67.869     -10.211      25.789
  O      -68.735     -11.185      25.170
  C      -66.828     -10.909      26.680
  N      -68.799      -8.953      30.921
  C      -69.432      -9.440      29.792
  N      -70.781      -9.426      29.807
  N      -68.796      -9.900      28.746
  C      -67.449      -9.855      28.872
  C      -66.709      -9.423      29.948
  C      -67.424      -8.912      31.099
  O      -66.911      -8.492      32.129
  N      -65.365      -9.588      29.731
  C      -65.294      -9.999      28.477
  N      -66.531     -10.238      27.933
  O      -63.009      -9.298      26.660
  O      -61.706      -8.842      24.505
  H      -69.417     -10.720      24.654
  H      -62.188      -9.807      26.800
  H      -69.338      -8.603      31.695
  H      -64.377     -10.162      27.930
  H      -67.144     -11.924      26.946
  H      -68.522      -9.514      26.319
  H      -71.334      -9.089      30.580
  H      -66.635      -8.553      25.159
  H      -71.264      -9.785      28.992
  H      -66.155     -11.307      23.930
  H      -63.748     -10.529      24.101
  H      -64.723      -9.686      22.910
  P      -67.495      -7.895      22.787
  C      -68.067      -5.431      23.364
  O      -68.182      -6.795      23.722
  O      -68.487      -8.011      21.534
  O      -66.103      -7.584      22.345
  H      -68.048      -7.659      20.737
  H      -68.948      -4.897      23.728
  H      -67.994      -5.301      22.281
  H      -67.176      -5.010      23.838
  H      -62.469      -4.958      25.369
  H      -63.282      -5.912      24.152
  H      -61.569      -6.121      24.425

 3  4  5  6  7  8  9  10  11  12  23  26  30  31 0
 6-311+G(2d,p)
 ****
 33  35  36  37  38 0
 6-311+G(2d,p)
 ****
 1  2  13  14  15  16  17  18  19  20  21  22  24  25 0
 3-21G
 ****
 27  28  29  32  34  39  40  41  42  43  44  45  46  47  48  49 0
 3-21G
 ****


