%nproc=1
%NoSave
%Mem=1900MB
#P OB98/GEN NMR

erre ene a

0 1
  C       28.871     -55.118      40.121
  O       28.933     -53.713      40.265
  H       29.888     -55.506      40.024
  H       28.311     -55.370      39.217
  H       28.400     -55.579      40.994
  P       27.592     -52.976      40.750
  C       26.291     -52.385      38.583
  O       27.194     -51.944      39.586
  C       25.217     -51.330      38.338
  O       24.369     -51.721      37.237
  C       24.293     -51.085      39.526
  O       24.868     -50.179      40.458
  C       23.095     -50.463      38.828
  O       23.383     -49.085      38.506
  C       23.011     -51.293      37.540
  N       19.123     -53.790      35.450
  C       19.683     -52.575      35.107
  N       19.120     -51.929      34.063
  N       20.697     -52.036      35.731
  C       21.141     -52.783      36.770
  C       20.666     -53.997      37.211
  C       19.556     -54.587      36.502
  O       19.031     -55.667      36.760
  N       21.371     -54.450      38.296
  C       22.255     -53.500      38.524
  N       22.156     -52.465      37.628
  O       28.118     -52.031      41.932
  O       26.503     -53.879      41.220
  H       23.668     -48.653      39.331
  H       27.887     -52.440      42.788
  H       18.336     -54.154      34.942
  H       22.991     -53.517      39.316
  H       22.655     -50.704      36.688
  H       22.198     -50.462      39.450
  H       18.323     -52.276      33.552
  H       23.991     -52.024      40.006
  H       19.516     -51.037      33.791
  H       25.722     -50.400      38.044
  H       25.819     -53.316      38.913
  H       26.848     -52.572      37.660
  P       25.079     -50.677      41.968
  C       22.809     -49.616      42.634
  O       24.200     -49.714      42.906
  O       26.584     -50.228      42.277
  O       24.891     -52.138      42.189
  H       27.155     -51.016      42.363
  H       22.355     -48.945      43.333
  H       22.359     -50.583      42.724
  H       22.665     -49.247      41.640

 6  7  8  9  10  11  12  13  14  15  26  29  33  34 0
 6-311+G(2d,p)
 ****
 36  38  39  40  41 0
 6-311+G(2d,p)
 ****
 1  2  3  4  5  16  17  18  19  20  21  22  23  24  25 0
 3-21G
 ****
 27  28  30  31  32  35  37  42  43  44  45  46  47 0
 3-21G
 ****
 48  49 0
 3-21G
 ****


