%nproc=1
%NoSave
%Mem=1900MB
#P OB98/GEN NMR

erre ene a

0 1
  C      231.269      17.072      58.602
  O      231.918      18.099      57.846
  P      232.636      19.249      58.710
  C      234.657      19.598      57.123
  O      233.488      20.166      57.697
  C      235.031      20.327      55.833
  O      234.112      19.983      54.755
  C      235.038      21.868      55.963
  O      236.114      22.357      55.122
  C      233.689      22.236      55.381
  O      233.563      23.606      55.039
  C      233.623      21.239      54.221
  N      230.599      22.395      50.261
  C      231.883      22.726      50.542
  N      232.617      22.371      51.624
  C      231.891      21.615      52.475
  C      230.571      21.209      52.318
  C      229.906      21.639      51.148
  N      228.604      21.340      50.872
  N      230.169      20.457      53.417
  C      231.212      20.471      54.230
  N      232.302      21.087      53.664
  O      233.752      18.463      59.550
  O      231.688      20.013      59.598
  H      234.377      23.893      54.563
  H      233.437      18.284      60.458
  H      232.385      23.330      49.801
  H      231.229      20.055      55.229
  H      234.281      21.534      53.395
  H      232.901      22.014      56.119
  H      235.197      22.227      56.986
  H      236.029      19.978      55.521
  H      234.496      18.542      56.913
  H      228.208      21.695      50.013
  H      228.046      20.783      51.510
  H      235.477      19.641      57.868
  P      237.387      23.026      55.823
  C      238.979      22.298      53.938
  O      238.360      23.395      54.590
  O      238.112      21.714      56.413
  O      237.113      24.089      56.827
  H      238.205      21.018      55.733
  H      239.529      22.680      53.078
  H      238.217      21.596      53.579
  H      239.666      21.785      54.626
  H      230.827      16.363      57.934
  H      230.508      17.507      59.215
  H      231.987      16.578      59.222

 3  4  5  6  7  8  9  10  11  12  22  25  29  30  31  32 0
 6-311+G(2d,p)
 ****
 33  36  37 0
 6-311+G(2d,p)
 ****
 1  2  13  14  15  16  17  18  19  20  21  23  24  26 0
 3-21G
 ****
 27  28  34  35  38  39  40  41  42  43  44  45  46  47  48 0
 3-21G
 ****


