%nproc=1
%NoSave
%Mem=1900MB
#P OB98/GEN NMR

erre ene a

0 1
  C       60.887     248.624     244.260
  O       59.804     248.289     243.424
  P       58.300     248.321     243.985
  C       57.394     249.352     241.806
  O       57.557     249.518     243.212
  C       57.159     250.706     241.146
  O       58.307     251.579     241.312
  C       56.960     250.637     239.637
  O       55.802     249.987     239.165
  C       57.147     252.092     239.246
  O       55.959     252.851     239.469
  C       58.264     252.537     240.224
  N       59.560     252.661     239.558
  C       59.937     253.950     239.204
  O       59.253     254.946     239.424
  N       61.138     254.060     238.549
  C       61.951     253.029     238.184
  O       62.991     253.197     237.560
  C       61.487     251.688     238.570
  C       60.329     251.564     239.230
  O       58.177     248.371     245.470
  O       57.633     247.024     243.320
  H       56.137     253.768     239.182
  H       57.632     247.020     242.346
  H       61.426     254.986     238.274
  H       62.116     250.846     238.305
  H       59.967     250.583     239.524
  H       58.015     253.507     240.673
  H       57.405     252.201     238.185
  H       57.803     250.082     239.210
  H       56.313     251.193     241.642
  H       56.528     248.710     241.623
  H       58.279     248.854     241.392
  P       55.836     248.748     238.147
  C       54.426     247.195     239.668
  O       55.645     247.400     238.991
  O       56.904     248.769     237.105
  O       54.406     248.891     237.425
  H       54.478     248.562     236.513
  H       54.488     246.253     240.222
  H       53.598     247.129     238.958
  H       54.242     248.005     240.380
  H       61.801     248.544     243.709
  H       60.914     247.955     245.094
  H       60.769     249.628     244.611

 3  4  5  6  7  8  9  10  11  12  13  23  28  29  30  31  32 0
 6-311+G(2d,p)
 ****
 33  34 0
 6-311+G(2d,p)
 ****
 1  2  14  15  16  17  18  19  20  21  22  24  25  26  27 0
 3-21G
 ****
 35  36  37  38  39  40  41  42  43  44  45 0
 3-21G
 ****


