%nproc=1
%NoSave
%Mem=1900MB
#P OB98/GEN NMR

erre ene a

0 1
  C      296.066     537.026      18.013
  O      295.321     538.226      17.906
  P      295.750     539.452      18.844
  C      293.663     539.426      20.419
  O      295.064     539.217      20.278
  C      293.237     539.117      21.849
  O      293.513     537.739      22.185
  C      293.983     539.940      22.898
  O      293.456     541.260      22.998
  C      293.772     539.108      24.154
  O      292.499     539.397      24.756
  C      293.797     537.672      23.590
  N      295.057     536.986      23.865
  C      295.108     536.245      25.035
  O      294.157     536.164      25.822
  N      296.289     535.607      25.296
  C      297.434     535.693      24.545
  O      298.483     535.149      24.863
  C      297.331     536.522      23.332
  C      296.171     537.128      23.058
  O      294.939     540.693      18.244
  O      297.213     539.711      18.896
  H      292.443     540.372      24.835
  H      295.481     541.509      18.316
  H      296.338     535.040      26.129
  H      298.215     536.613      22.716
  H      296.079     537.752      22.176
  H      292.982     537.079      24.035
  H      294.533     539.307      24.919
  H      295.057     539.968      22.665
  H      292.151     539.280      21.936
  H      293.124     538.773      19.724
  H      293.436     540.464      20.165
  P      294.160     542.245      24.050
  C      291.796     542.773      25.016
  O      293.132     542.369      25.265
  O      294.060     543.635      23.263
  O      295.552     541.822      24.397
  H      293.259     543.690      22.715
  H      291.431     542.384      24.061
  H      291.741     543.858      25.009
  H      291.152     542.387      25.821
  H      295.671     536.299      17.334
  H      295.999     536.652      19.013
  H      297.091     537.220      17.773

 3  4  5  6  7  8  9  10  11  12  13  23  28  29  30  31  32 0
 6-311+G(2d,p)
 ****
 33  34 0
 6-311+G(2d,p)
 ****
 1  2  14  15  16  17  18  19  20  21  22  24  25  26 0
 3-21G
 ****
 27  35  36  37  38  39  40  41  42  43  44  45 0
 3-21G
 ****


