%nproc=1
%NoSave
%Mem=1900MB
#P OB98/GEN NMR

erre ene a

0 1
  C     -486.409    -898.060     552.835
  O     -486.754    -896.860     553.489
  H     -486.335    -897.870     551.760
  H     -487.185    -898.820     553.003
  H     -485.447    -898.430     553.199
  P     -486.922    -896.920     555.082
  C     -489.489    -897.000     555.474
  O     -488.282    -897.740     555.358
  C     -490.452    -897.700     556.432
  O     -489.908    -897.630     557.780
  C     -491.853    -897.070     556.470
  O     -492.826    -898.130     556.611
  C     -491.837    -896.250     557.745
  O     -493.141    -896.010     558.251
  C     -490.961    -897.130     558.632
  N     -492.225    -894.860     562.943
  C     -492.996    -895.560     562.038
  N     -494.307    -895.670     562.318
  N     -492.518    -896.100     560.945
  C     -491.185    -895.940     560.803
  C     -490.312    -895.260     561.621
  C     -490.853    -894.640     562.812
  O     -490.222    -893.990     563.641
  N     -489.033    -895.280     561.107
  C     -489.136    -895.980     559.988
  N     -490.425    -896.400     559.766
  O     -487.318    -895.420     555.480
  O     -485.733    -897.410     555.837
  H     -493.594    -896.880     558.346
  H     -487.000    -895.200     556.377
  H     -492.640    -894.450     563.758
  H     -488.326    -896.200     559.312
  H     -491.505    -897.990     559.045
  H     -491.351    -895.280     557.559
  H     -494.744    -895.310     563.155
  H     -492.085    -896.480     555.586
  H     -494.899    -896.200     561.670
  H     -490.499    -898.760     556.165
  H     -489.952    -896.920     554.484
  H     -489.262    -895.990     555.846
  P     -493.817    -898.380     555.373
  C     -495.120    -896.170     555.773
  O     -494.383    -896.970     554.862
  O     -495.088    -899.060     556.075
  O     -493.248    -899.270     554.321
  H     -495.126    -900.000     555.853
  H     -495.427    -895.267     555.287
  H     -494.505    -895.930     556.615
  H     -495.983    -896.709     556.103

 6  7  8  9  10  11  12  13  14  15  26  29  33  34 0
 6-311+G(2d,p)
 ****
 36  38  39  40  41 0
 6-311+G(2d,p)
 ****
 1  2  3  4  5  16  17  18  19  20  21  22  23  24  25 0
 3-21G
 ****
 27  28  30  31  32  35  37  42  43  44  45  46  47 0
 3-21G
 ****
 48  49 0
 3-21G
 ****


