%nproc=1
%NoSave
%Mem=1900MB
#P OB98/GEN NMR

erre ene a

0 1
  C     -897.280    -943.277    -821.819
  O     -897.160    -942.649    -823.088
  H     -896.300    -943.437    -821.404
  H     -897.800    -944.242    -821.926
  H     -897.850    -942.641    -821.135
  P     -898.510    -942.349    -823.884
  C     -897.520    -940.226    -824.968
  O     -898.030    -941.544    -825.191
  C     -896.710    -939.758    -826.180
  O     -895.420    -940.390    -826.186
  C     -897.400    -940.100    -827.533
  O     -897.210    -939.021    -828.444
  C     -896.640    -941.325    -828.011
  O     -896.700    -941.475    -829.429
  C     -895.240    -941.058    -827.439
  N     -892.010    -944.319    -829.691
  C     -892.470    -943.107    -830.054
  N     -893.320    -942.297    -829.378
  C     -893.660    -942.829    -828.206
  C     -893.260    -944.064    -827.685
  C     -892.390    -944.801    -828.492
  N     -891.920    -946.062    -828.152
  N     -893.840    -944.273    -826.453
  C     -894.570    -943.192    -826.219
  N     -894.500    -942.293    -827.252
  O     -899.600    -941.697    -823.093
  O     -898.850    -943.782    -824.484
  H     -897.630    -941.371    -829.710
  H     -898.080    -944.229    -824.842
  H     -892.130    -942.720    -831.035
  H     -895.180    -942.996    -825.322
  H     -894.640    -940.417    -828.082
  H     -897.070    -942.225    -827.561
  H     -898.480    -940.307    -827.418
  H     -896.550    -938.668    -826.095
  H     -896.870    -940.227    -824.086
  H     -891.310    -946.545    -828.775
  H     -892.190    -946.451    -827.240
  H     -898.360    -939.562    -824.783
  P     -898.460    -938.102    -828.817
  C     -896.690    -936.194    -828.880
  O     -897.920    -936.696    -829.382
  O     -899.540    -937.988    -827.784
  O     -899.010    -938.817    -830.150
  H     -900.000    -938.762    -830.132
  H     -896.468    -935.258    -829.349
  H     -895.907    -936.893    -829.090
  H     -896.768    -936.053    -827.822

 6  7  8  9  10  11  12  13  14  15  25  28  32  33  34  35 0
 6-311+G(2d,p)
 ****
 36  39  40 0
 6-311+G(2d,p)
 ****
 1  2  3  4  5  16  17  18  19  20  21  22  23  24 0
 3-21G
 ****
 26  27  29  30  31  37  38  41  42  43  44  45  46  47 0
 3-21G
 ****
 48 0
 3-21G
 ****


