%nproc=1
%NoSave
%Mem=1900MB
#P OB98/GEN NMR

erre ene a

0 1
  C      111.494     243.532    -134.264
  O      111.847     244.732    -133.557
  P      111.676     244.788    -131.968
  C      109.895     243.825    -130.350
  O      110.149     244.506    -131.578
  C      108.899     244.622    -129.509
  O      109.499     245.814    -128.938
  C      107.710     245.129    -130.320
  O      106.788     244.170    -130.795
  C      107.171     246.237    -129.433
  O      106.301     245.723    -128.422
  C      108.463     246.807    -128.804
  N      108.872     248.080    -129.404
  C      109.300     249.064    -128.515
  O      109.304     248.912    -127.295
  N      109.699     250.250    -129.084
  C      109.673     250.544    -130.421
  O      110.022     251.632    -130.868
  C      109.183     249.479    -131.307
  C      108.815     248.312    -130.771
  O      112.299     245.971    -131.297
  O      112.409     243.431    -131.490
  H      106.766     244.992    -127.982
  H      112.928     243.645    -130.686
  H      110.024     250.967    -128.458
  H      109.145     249.677    -132.366
  H      108.454     247.504    -131.404
  H      108.322     246.975    -127.731
  H      106.583     246.969    -130.002
  H      108.115     245.624    -131.223
  H      108.562     243.989    -128.672
  H      110.839     243.698    -129.801
  H      109.527     242.816    -130.569
  P      106.291     244.119    -132.316
  C      104.248     245.157    -133.554
  O      105.235     245.308    -132.548
  O      105.939     242.778    -132.881
  O      107.580     244.670    -133.102
  H      107.626     244.240    -133.973
  H      103.639     246.060    -133.577
  H      103.607     244.297    -133.324
  H      104.722     245.022    -134.533
  H      111.670     243.670    -135.310
  H      110.459     243.314    -134.102
  H      112.090     242.719    -133.906

 3  4  5  6  7  8  9  10  11  12  13  23  28  29  30  31  32 0
 6-311+G(2d,p)
 ****
 33  34 0
 6-311+G(2d,p)
 ****
 1  2  14  15  16  17  18  19  20  21  22  24  25  26  27 0
 3-21G
 ****
 35  36  37  38  39  40  41  42  43  44  45 0
 3-21G
 ****


