%nproc=1
%NoSave
%Mem=1900MB
#P OB98/GEN NMR

erre ene a

0 1
  C      787.782     488.127     588.780
  O      788.411     488.921     587.770
  P      789.121     488.153     586.550
  C      791.159     487.289     587.931
  O      790.696     488.082     586.837
  C      792.675     487.044     587.796
  O      792.974     486.292     586.607
  C      793.469     488.303     587.677
  O      793.627     488.944     588.954
  C      794.785     487.811     587.077
  O      795.729     487.449     588.104
  C      794.338     486.590     586.265
  N      794.488     486.776     584.821
  C      795.795     487.005     584.377
  O      796.743     487.064     585.176
  N      796.000     487.198     583.026
  C      794.997     487.197     582.213
  N      795.253     487.390     580.890
  C      793.594     486.981     582.655
  C      793.411     486.781     583.959
  O      789.009     489.197     585.340
  O      788.474     486.837     586.210
  H      795.261     486.793     588.665
  H      788.908     488.728     584.495
  H      792.775     486.992     581.944
  H      792.432     486.620     584.382
  H      794.925     485.714     586.559
  H      795.273     488.591     586.481
  H      792.980     489.017     586.991
  H      792.991     486.470     588.686
  H      796.221     487.531     580.625
  H      790.614     486.332     587.962
  H      794.544     487.416     580.164
  H      790.916     487.812     588.858
  P      792.371     489.710     589.578
  C      793.599     491.952     589.680
  O      792.984     490.904     590.435
  O      791.879     488.695     590.737
  O      791.239     490.039     588.641
  H      791.057     489.014     591.127
  H      793.791     492.799     590.365
  H      792.949     492.295     588.883
  H      794.561     491.613     589.286
  H      787.355     488.768     589.523
  H      788.509     487.488     589.236
  H      787.012     487.531     588.337

 3  4  5  6  7  8  9  10  11  12  13  21  23  27  28  29  30  32 0
 6-311+G(2d,p)
 ****
 34  35 0
 6-311+G(2d,p)
 ****
 1  2  14  15  16  17  18  19  20  22  24  25  26 0
 3-21G
 ****
 31  33  36  37  38  39  40  41  42  43  44  45  46 0
 3-21G
 ****


