%nproc=1
%NoSave
%Mem=1900MB
#P OB98/GEN NMR

erre ene a

0 1
  C     -168.206    -396.088     330.042
  O     -167.597    -396.001     328.773
  H     -169.190    -396.546     329.926
  H     -168.330    -395.089     330.468
  H     -167.615    -396.708     330.724
  P     -166.033    -395.673     328.690
  C     -165.983    -396.928     326.433
  O     -165.617    -395.754     327.141
  C     -165.799    -396.732     324.921
  O     -166.621    -395.615     324.491
  C     -164.351    -396.382     324.570
  O     -163.997    -396.798     323.256
  C     -164.350    -394.860     324.621
  O     -163.302    -394.273     323.853
  C     -165.750    -394.543     324.096
  N     -165.360    -389.461     324.026
  C     -164.485    -390.404     323.534
  N     -163.363    -389.937     322.935
  N     -164.686    -391.694     323.631
  C     -165.814    -392.019     324.311
  C     -166.742    -391.172     324.867
  C     -166.527    -389.743     324.722
  O     -167.260    -388.864     325.166
  N     -167.751    -391.868     325.486
  C     -167.429    -393.136     325.310
  N     -166.273    -393.281     324.581
  O     -165.340    -396.982     329.301
  O     -165.590    -394.434     329.408
  H     -162.455    -394.578     324.227
  H     -164.446    -396.775     329.619
  H     -165.175    -388.478     323.897
  H     -167.999    -393.978     325.675
  H     -165.753    -394.497     323.002
  H     -164.206    -394.553     325.659
  H     -163.088    -388.974     323.019
  H     -163.634    -396.796     325.280
  H     -162.587    -390.597     322.857
  H     -166.156    -397.613     324.385
  H     -167.026    -397.132     326.673
  H     -165.398    -397.783     326.783
  P     -162.894    -397.946     323.086
  C     -163.557    -398.875     320.694
  O     -162.627    -398.223     321.535
  O     -163.634    -399.270     323.586
  O     -161.627    -397.695     323.843
  H     -163.212    -399.615     324.392
  H     -163.156    -398.944     319.704
  H     -164.469    -398.317     320.671
  H     -163.750    -399.858     321.070

 6  7  8  9  10  11  12  13  14  15  26  29  33  34 0
 6-311+G(2d,p)
 ****
 36  38  39  40  41 0
 6-311+G(2d,p)
 ****
 1  2  3  4  5  16  17  18  19  20  21  22  23  24  25 0
 3-21G
 ****
 27  28  30  31  32  35  37  42  43  44  45  46  47 0
 3-21G
 ****
 48  49 0
 3-21G
 ****


