%nproc=1
%NoSave
%Mem=1900MB
#P OB98/GEN NMR

erre ene a

0 1
  C      124.269      35.684      51.605
  O      125.012      35.505      50.413
  H      124.753      36.458      52.207
  H      124.243      34.752      52.179
  H      123.251      36.007      51.366
  P      124.485      34.378      49.397
  C      124.178      31.814      49.589
  O      124.502      33.025      50.259
  C      124.844      30.624      50.277
  O      126.277      30.744      50.199
  C      124.506      30.484      51.756
  O      123.269      29.809      51.921
  C      125.673      29.634      52.239
  O      125.423      28.250      51.928
  C      126.848      30.156      51.396
  N      131.321      30.999      53.775
  C      130.705      29.853      53.402
  N      129.494      29.700      52.825
  C      128.907      30.894      52.626
  C      129.412      32.143      52.958
  C      130.685      32.173      53.555
  N      131.309      33.341      53.936
  N      128.527      33.142      52.609
  C      127.530      32.509      52.021
  N      127.694      31.145      52.039
  O      125.171      34.328      48.075
  O      122.922      34.729      49.339
  H      124.593      28.003      52.379
  H      122.591      34.964      50.225
  H      131.258      28.937      53.595
  H      126.680      32.990      51.553
  H      127.512      29.342      51.074
  H      125.819      29.695      53.320
  H      124.529      31.451      52.273
  H      124.563      29.717      49.725
  H      124.500      31.863      48.539
  H      132.125      33.257      54.527
  H      130.776      34.197      53.887
  H      123.088      31.704      49.610
  P      122.208      30.282      53.031
  C      122.181      30.176      55.600
  O      122.728      29.634      54.403
  O      120.787      30.016      52.680
  O      122.517      31.838      53.232
  H      121.767      32.275      53.683
  H      122.599      29.669      56.445
  H      121.119      30.048      55.597
  H      122.414      31.219      55.659

 6  7  8  9  10  11  12  13  14  15  25  28  32  33  34  35 0
 6-311+G(2d,p)
 ****
 36  39  40 0
 6-311+G(2d,p)
 ****
 1  2  3  4  5  16  17  18  19  20  21  22  23  24 0
 3-21G
 ****
 26  27  29  30  31  37  38  41  42  43  44  45  46  47 0
 3-21G
 ****
 48 0
 3-21G
 ****


