%nproc=1
%NoSave
%Mem=1900MB
#P OB98/GEN NMR

erre ene a

0 1
  C     -180.920    -377.888    -244.559
  O     -180.636    -378.093    -245.926
  H     -181.454    -378.758    -244.174
  H     -181.562    -377.010    -244.442
  H     -180.002    -377.754    -243.980
  P     -179.620    -377.101    -246.671
  C     -181.522    -375.477    -247.323
  O     -180.488    -376.334    -247.784
  C     -182.874    -375.942    -247.865
  O     -182.708    -376.281    -249.273
  C     -183.427    -377.187    -247.144
  O     -184.856    -377.095    -247.106
  C     -183.006    -378.295    -248.087
  O     -183.763    -379.467    -247.896
  C     -183.213    -377.622    -249.444
  N     -182.530    -378.348    -250.511
  C     -183.301    -379.232    -251.259
  O     -184.500    -379.432    -251.059
  N     -182.639    -379.949    -252.215
  C     -181.284    -379.949    -252.415
  O     -180.728    -380.669    -253.230
  C     -180.511    -379.034    -251.558
  C     -181.161    -378.283    -250.661
  O     -178.357    -377.715    -247.177
  O     -179.348    -375.939    -245.602
  H     -183.532    -379.882    -247.047
  H     -178.517    -375.475    -245.808
  H     -183.184    -380.584    -252.773
  H     -179.434    -379.023    -251.675
  H     -180.621    -377.611    -250.003
  H     -184.279    -377.547    -249.683
  H     -181.954    -378.551    -247.928
  H     -183.032    -377.308    -246.130
  H     -183.585    -375.110    -247.818
  H     -181.304    -374.461    -247.678
  H     -181.532    -375.476    -246.228
  P     -185.631    -376.482    -245.834
  C     -187.730    -377.888    -246.303
  O     -187.222    -376.585    -246.040
  O     -185.155    -375.125    -245.422
  O     -185.348    -377.533    -244.658
  H     -185.100    -377.052    -243.847
  H     -188.792    -377.839    -246.422
  H     -187.492    -378.535    -245.485
  H     -187.287    -378.269    -247.200

 6  7  8  9  10  11  12  13  14  15  16  26  31  32  33  34  35 0
 6-311+G(2d,p)
 ****
 36  37 0
 6-311+G(2d,p)
 ****
 1  2  3  4  5  17  18  19  20  21  22  23  24  25 0
 3-21G
 ****
 27  28  29  30  38  39  40  41  42  43  44  45 0
 3-21G
 ****


