%nproc=1
%NoSave
%Mem=1900MB
#P OB98/GEN NMR

erre ene a

0 1
  C       40.709     138.542    -288.080
  O       40.183     138.239    -286.785
  P       40.279     136.703    -286.316
  C       38.417     135.748    -287.841
  O       39.800     135.765    -287.523
  C       38.084     134.700    -288.910
  O       36.672     134.720    -289.243
  C       38.845     134.915    -290.226
  O       39.110     133.611    -290.778
  C       37.844     135.620    -291.103
  O       38.168     135.491    -292.488
  C       36.542     134.930    -290.665
  N       35.341     135.702    -290.991
  C       35.112     135.975    -292.346
  O       35.942     135.635    -293.198
  N       33.977     136.663    -292.701
  C       33.165     137.084    -291.786
  N       32.057     137.763    -292.203
  C       33.397     136.872    -290.347
  C       34.489     136.174    -290.027
  O       39.096     136.574    -285.237
  O       41.605     136.344    -285.714
  H       38.205     134.531    -292.704
  H       39.436     136.163    -284.418
  H       32.698     137.263    -289.609
  H       34.741     135.967    -288.997
  H       36.448     133.944    -291.137
  H       37.812     136.695    -290.851
  H       39.795     135.454    -290.096
  H       38.316     133.712    -288.503
  H       31.929     137.882    -293.203
  H       38.108     136.736    -288.199
  H       31.362     138.138    -291.576
  H       37.843     135.561    -286.921
  P       40.613     133.053    -290.736
  C       41.423     134.171    -292.910
  O       41.488     134.169    -291.494
  O       40.557     131.891    -291.844
  O       41.144     132.544    -289.437
  H       41.397     131.410    -291.866
  H       41.957     135.042    -293.282
  H       40.382     134.225    -293.242
  H       41.891     133.266    -293.303
  H       40.589     139.587    -288.278
  H       40.183     137.976    -288.820
  H       41.749     138.290    -288.111

 3  4  5  6  7  8  9  10  11  12  13  21  23  27  28  29  30  32 0
 6-311+G(2d,p)
 ****
 34  35 0
 6-311+G(2d,p)
 ****
 1  2  14  15  16  17  18  19  20  22  24  25  26 0
 3-21G
 ****
 31  33  36  37  38  39  40  41  42  43  44  45  46 0
 3-21G
 ****


