%nproc=1
%NoSave
%Mem=1900MB
#P OB98/GEN NMR

erre ene a

0 1
  C     -110.886    -153.716      59.160
  O     -111.496    -154.763      59.912
  P     -111.111    -156.286      59.582
  C     -111.141    -157.114      62.017
  O     -111.723    -157.235      60.728
  C     -111.776    -158.070      63.037
  O     -113.041    -157.544      63.522
  C     -112.047    -159.483      62.496
  O     -111.818    -160.397      63.573
  C     -113.521    -159.422      62.152
  O     -114.108    -160.707      62.027
  C     -114.040    -158.565      63.312
  N     -115.348    -157.990      63.041
  C     -116.451    -158.601      63.644
  O     -116.307    -159.640      64.285
  N     -117.693    -158.027      63.474
  C     -117.833    -157.031      62.655
  N     -119.069    -156.479      62.530
  C     -116.714    -156.477      61.862
  C     -115.512    -156.983      62.122
  O     -109.671    -156.529      59.269
  O     -112.039    -156.622      58.315
  H     -115.066    -160.604      61.835
  H     -111.555    -157.231      57.726
  H     -116.894    -155.704      61.129
  H     -114.630    -156.641      61.597
  H     -114.105    -159.155      64.236
  H     -113.655    -158.895      61.198
  H     -111.404    -159.758      61.654
  H     -111.097    -158.136      63.904
  H     -119.832    -156.884      63.062
  H     -111.254    -156.085      62.368
  H     -119.248    -155.669      61.950
  H     -110.057    -157.283      61.938
  P     -110.363    -161.064      63.737
  C     -110.448    -161.174      66.332
  O     -110.342    -161.879      65.116
  O     -109.456    -159.782      64.100
  O     -109.816    -161.753      62.527
  H     -108.539    -159.965      63.836
  H     -110.698    -161.879      67.130
  H     -111.235    -160.415      66.288
  H     -109.488    -160.701      66.574
  H     -111.250    -152.771      59.505
  H     -111.126    -153.834      58.124
  H     -109.824    -153.757      59.287

 3  4  5  6  7  8  9  10  11  12  13  23  27  28  29  30  32 0
 6-311+G(2d,p)
 ****
 34  35 0
 6-311+G(2d,p)
 ****
 1  2  14  15  16  17  18  19  20  21  22  24  25  26 0
 3-21G
 ****
 31  33  36  37  38  39  40  41  42  43  44  45  46 0
 3-21G
 ****


