%nproc=1
%NoSave
%Mem=1900MB
#P OB98/GEN NMR

erre ene a

0 1
  C      105.096     252.268     178.278
  O      105.923     252.214     179.430
  P      107.427     252.756     179.295
  C      106.669     255.031     180.263
  O      107.329     254.356     179.201
  C      107.417     256.305     180.643
  O      107.400     257.217     179.511
  C      106.819     257.053     181.846
  O      107.880     257.488     182.708
  C      106.197     258.290     181.220
  O      106.106     259.367     182.146
  C      107.160     258.528     180.058
  N      107.066     263.340     178.527
  C      107.872     262.728     179.468
  N      108.735     263.529     180.130
  N      107.834     261.450     179.736
  C      106.946     260.767     178.974
  C      106.099     261.258     178.007
  C      106.110     262.685     177.762
  O      105.357     263.299     177.008
  N      105.357     260.254     177.438
  C      105.749     259.160     178.060
  N      106.677     259.427     179.035
  O      107.834     252.310     177.812
  O      108.388     252.224     180.301
  H      107.006     259.525     182.491
  H      108.644     251.769     177.841
  H      107.123     264.331     178.372
  H      105.368     258.166     177.864
  H      108.115     258.923     180.427
  H      105.189     258.046     180.867
  H      108.841     264.514     179.948
  H      106.093     256.469     182.421
  H      109.351     263.095     180.809
  H      108.467     256.050     180.831
  H      106.621     254.370     181.134
  H      105.649     255.275     179.949
  P      107.497     257.676     184.256
  C      108.971     255.696     185.089
  O      107.672     256.233     184.926
  O      105.914     257.892     184.221
  O      108.215     258.801     184.924
  H      105.618     258.386     185.010
  H      109.751     256.433     184.872
  H      109.092     254.845     184.416
  H      109.086     255.356     186.123
  H      104.129     251.876     178.515
  H      105.535     251.685     177.496
  H      105.000     253.284     177.955

 3  4  5  6  7  8  9  10  11  12  23  26  30  31  33  0
 6-311+G(2d,p)
 ****
 35  36  37  38 0
 6-311+G(2d,p)
 ****
 1  2  13  14  15  16  17  18  19  20  21  22  24  25  27  28  29 0
 3-21G
 ****
 32  34  39  40  41  42  43  44  45  46  47  48  49 0
 3-21G
 ****


