%nproc=1
%NoSave
%Mem=1900MB
#P OB98/GEN NMR

erre ene a

0 1
  C        4.992    -218.638     343.002
  O        6.286    -218.163     342.690
  H        4.256    -217.900     342.673
  H        4.889    -218.780     344.081
  H        4.803    -219.580     342.481
  P        7.524    -219.054     343.184
  C        9.884    -219.566     342.218
  O        8.550    -219.147     341.956
  C       10.626    -219.761     340.899
  O       10.102    -220.918     340.207
  C       10.472    -218.601     339.924
  O       11.315    -217.506     340.238
  C       10.860    -219.273     338.619
  O       12.281    -219.284     338.428
  C       10.309    -220.697     338.797
  N        9.088    -220.909     338.023
  C        9.218    -220.785     336.644
  O       10.282    -220.517     336.084
  N        8.069    -220.943     335.919
  C        6.824    -221.154     336.431
  O        5.824    -221.228     335.726
  C        6.742    -221.257     337.897
  C        7.860    -221.130     338.616
  O        6.901    -220.524     343.274
  O        8.134    -218.622     344.477
  H        6.773    -220.772     344.209
  H       12.437    -219.781     337.599
  H        8.142    -220.857     334.917
  H        5.767    -221.424     338.340
  H        7.826    -221.192     339.699
  H       11.051    -221.440     338.470
  H       10.426    -218.750     337.768
  H        9.422    -218.289     339.867
  H       11.687    -219.940     341.120
  H        9.871    -220.517     342.761
  H       10.376    -218.813     342.843
  P       10.756    -216.027     339.953
  C       11.327    -213.676     340.991
  O       11.681    -215.039     340.811
  O        9.369    -216.081     340.751
  O       10.641    -215.712     338.501
  H        9.400    -216.714     341.489
  H       12.069    -213.191     341.590
  H       10.378    -213.616     341.481
  H       11.267    -213.194     340.038

 6  7  8  9  10  11  12  13  14  15  16  27  31  32  33  34  35 0
 6-311+G(2d,p)
 ****
 36  37 0
 6-311+G(2d,p)
 ****
 1  2  3  4  5  17  18  19  20  21  22  23  24  25 0
 3-21G
 ****
 26  28  29  30  38  39  40  41  42  43  44  45 0
 3-21G
 ****


