%nproc=1
%NoSave
%Mem=1900MB
#P OB98/GEN NMR

erre ene a

0 1
  C      455.860     369.139      18.752
  O      456.754     370.167      19.190
  P      456.174     371.422      19.995
  C      458.011     371.664      21.802
  O      456.654     371.341      21.522
  C      458.823     370.383      22.002
  O      458.805     369.553      20.815
  C      460.301     370.657      22.257
  O      460.638     371.247      23.494
  C      460.938     369.314      21.932
  O      460.860     368.414      23.040
  C      460.046     368.821      20.767
  N      460.698     368.962      19.464
  C      461.758     368.097      19.211
  O      462.179     367.287      20.035
  N      462.356     368.223      17.986
  C      462.019     369.131      17.022
  O      462.603     369.217      15.947
  C      460.908     370.032      17.353
  C      460.304     369.911      18.538
  O      454.722     371.711      19.797
  O      457.060     372.642      19.427
  H      461.588     368.641      23.651
  H      456.470     373.406      19.304
  H      463.120     367.599      17.786
  H      460.618     370.769      16.613
  H      459.478     370.566      18.803
  H      459.796     367.762      20.901
  H      461.998     369.420      21.681
  H      460.653     371.364      21.489
  H      458.375     369.809      22.813
  H      458.065     372.290      22.697
  H      458.409     372.266      20.978
  P      460.889     372.820      23.676
  C      460.296     373.156      26.177
  O      459.923     373.359      24.834
  O      461.001     373.645      22.436
  O      462.315     372.828      24.415
  H      462.808     373.621      24.131
  H      459.516     373.567      26.824
  H      461.239     373.665      26.396
  H      460.393     372.085      26.387
  H      456.412     368.383      18.234
  H      455.128     369.559      18.094
  H      455.371     368.706      19.600

 3  4  5  6  7  8  9  10  11  12  13  23  28  29  30  31  32 0
 6-311+G(2d,p)
 ****
 33  34 0
 6-311+G(2d,p)
 ****
 1  2  14  15  16  17  18  19  20  21  22  24  25  26  27 0
 3-21G
 ****
 35  36  37  38  39  40  41  42  43  44  45 0
 3-21G
 ****


