%nproc=1
%NoSave
%Mem=1900MB
#P OB98/GEN NMR

erre ene a

0 1
  C       90.165    -273.382     135.663
  O       89.938    -272.458     134.617
  H       90.103    -272.853     136.617
  H       91.163    -273.818     135.565
  H       89.408    -274.172     135.646
  P       89.808    -273.064     133.135
  C       88.627    -270.763     132.685
  O       89.424    -271.825     132.193
  C       88.988    -269.450     131.988
  O       90.423    -269.256     132.077
  C       88.604    -269.414     130.507
  O       88.202    -268.083     130.177
  C       89.911    -269.735     129.799
  O       89.925    -269.257     128.457
  C       90.930    -269.074     130.739
  N       92.271    -269.638     130.591
  C       93.063    -269.113     129.566
  O       92.620    -268.229     128.831
  N       94.318    -269.626     129.367
  C       94.727    -270.623     130.087
  N       95.971    -271.104     129.824
  C       93.908    -271.239     131.150
  C       92.709    -270.696     131.352
  O       88.446    -273.898     133.241
  O       90.987    -273.863     132.689
  H       89.207    -269.705     127.958
  H       87.735    -273.421     133.699
  H       94.289    -272.077     131.716
  H       92.046    -271.080     132.117
  H       90.988    -267.995     130.548
  H       90.066    -270.819     129.770
  H       87.804    -270.116     130.261
  H       88.522    -268.624     132.535
  H       96.489    -270.668     129.072
  H       88.767    -270.650     133.764
  H       96.369    -271.910     130.282
  H       87.578    -271.014     132.502
  P       86.683    -267.798     129.763
  C       86.444    -265.735     131.304
  O       86.358    -266.244     129.978
  O       85.672    -268.743     130.320
  O       86.728    -267.918     128.160
  H       85.922    -268.390     127.874
  H       86.204    -264.692     131.302
  H       87.439    -265.871     131.674
  H       85.755    -266.259     131.933

 6  7  8  9  10  11  12  13  14  15  16  26  30  31  32  33  35 0
 6-311+G(2d,p)
 ****
 37  38 0
 6-311+G(2d,p)
 ****
 1  2  3  4  5  17  18  19  20  21  22  23  24  25 0
 3-21G
 ****
 27  28  29  34  36  39  40  41  42  43  44  45  46 0
 3-21G
 ****


