%nproc=1
%NoSave
%Mem=1900MB
#P OB98/GEN NMR

erre ene a

0 1
  C      566.353     408.897     911.260
  O      566.596     410.030     912.084
  P      565.356     410.607     912.931
  C      565.527     408.505     914.446
  O      564.686     409.327     913.642
  C      565.145     408.627     915.912
  O      565.436     409.960     916.379
  C      563.668     408.404     916.213
  O      563.341     407.029     916.277
  C      563.538     409.072     917.575
  O      563.976     408.164     918.597
  C      564.511     410.259     917.455
  N      563.506     414.907     919.189
  C      564.229     413.885     919.768
  N      564.788     414.149     920.969
  N      564.394     412.706     919.216
  C      563.812     412.602     918.001
  C      563.065     413.541     917.327
  C      562.852     414.821     917.966
  O      562.165     415.741     917.529
  N      562.650     413.070     916.105
  C      563.173     411.860     916.030
  N      563.863     411.523     917.170
  O      564.295     411.000     911.808
  O      565.682     411.758     913.820
  H      564.037     408.667     919.433
  H      563.696     411.697     912.138
  H      563.427     415.799     919.643
  H      563.078     411.205     915.170
  H      565.108     410.372     918.376
  H      562.510     409.351     917.813
  H      564.805     415.067     921.382
  H      563.043     408.934     915.484
  H      565.361     413.428     921.395
  H      565.762     407.921     916.491
  H      566.570     408.810     914.323
  H      565.424     407.458     914.113
  P      561.790     406.653     916.097
  C      562.014     406.270     913.535
  O      561.435     407.032     914.579
  O      561.035     407.763     916.966
  O      561.436     405.272     916.527
  H      560.167     407.430     917.272
  H      562.100     405.216     913.805
  H      563.011     406.677     913.301
  H      561.382     406.358     912.649
  H      567.257     408.621     910.758
  H      565.602     409.136     910.537
  H      566.018     408.081     911.865

 3  4  5  6  7  8  9  10  11  12  23  26  30  31  33  0
 6-311+G(2d,p)
 ****
 35  36  37  38 0
 6-311+G(2d,p)
 ****
 1  2  13  14  15  16  17  18  19  20  21  22  24  25  27  28  29 0
 3-21G
 ****
 32  34  39  40  41  42  43  44  45  46  47  48  49 0
 3-21G
 ****


