%nproc=1
%NoSave
%Mem=1900MB
#P OB98/GEN NMR

erre ene a

0 1
  C      156.710    -225.767     448.939
  O      157.416    -224.593     448.575
  P      156.663    -223.181     448.435
  C      158.966    -222.202     449.016
  O      157.827    -222.114     448.168
  C      160.244    -222.151     448.183
  O      160.167    -221.010     447.297
  C      161.545    -221.965     448.966
  O      162.101    -223.162     449.485
  C      162.457    -221.421     447.873
  O      162.916    -222.501     447.040
  C      161.510    -220.509     447.085
  N      164.051    -216.097     446.568
  C      164.200    -217.302     445.971
  N      163.492    -218.434     446.179
  C      162.521    -218.226     447.082
  C      162.241    -217.056     447.763
  C      163.061    -215.949     447.478
  N      162.891    -214.716     448.072
  N      161.172    -217.236     448.624
  C      160.809    -218.484     448.444
  N      161.584    -219.124     447.514
  O      155.735    -222.864     449.557
  O      155.923    -223.269     447.022
  H      163.451    -223.089     447.606
  H      155.230    -222.581     446.965
  H      164.996    -217.369     445.233
  H      159.995    -218.973     448.966
  H      161.700    -220.539     446.008
  H      163.346    -220.923     448.271
  H      161.431    -221.206     449.752
  H      160.290    -223.057     447.566
  H      158.921    -223.162     449.550
  H      163.440    -213.951     447.710
  H      162.059    -214.561     448.622
  H      158.942    -221.398     449.752
  P      162.647    -223.122     450.997
  C      161.809    -225.592     451.196
  O      162.837    -224.655     451.432
  O      161.836    -222.289     451.928
  O      164.150    -222.603     450.817
  H      164.751    -223.215     450.362
  H      162.193    -226.596     451.408
  H      161.481    -225.564     450.153
  H      160.959    -225.395     451.856
  H      157.388    -226.594     448.977
  H      155.948    -225.964     448.214
  H      156.261    -225.630     449.901

 3  4  5  6  7  8  9  10  11  12  22  25  29  30  31  32 0
 6-311+G(2d,p)
 ****
 33  36  37 0
 6-311+G(2d,p)
 ****
 1  2  13  14  15  16  17  18  19  20  21  23  24  26 0
 3-21G
 ****
 27  28  34  35  38  39  40  41  42  43  44  45  46  47  48 0
 3-21G
 ****


