%nproc=1
%NoSave
%Mem=1900MB
#P OB98/GEN NMR

erre ene a

0 1
  C      215.014    -232.540    -264.306
  O      215.576    -231.681    -263.325
  P      215.479    -230.099    -263.574
  C      214.113    -229.292    -261.532
  O      214.096    -229.618    -262.915
  C      214.013    -227.784    -261.327
  O      215.195    -227.152    -261.894
  C      212.785    -227.137    -261.983
  O      212.207    -226.188    -261.077
  C      213.372    -226.362    -263.150
  O      212.548    -225.266    -263.533
  C      214.727    -225.967    -262.567
  N      215.886    -222.265    -265.803
  C      214.953    -222.286    -264.785
  N      214.185    -221.184    -264.649
  N      214.786    -223.297    -263.973
  C      215.647    -224.321    -264.204
  C      216.617    -224.411    -265.176
  C      216.749    -223.309    -266.102
  O      217.494    -223.267    -267.082
  N      217.300    -225.598    -265.084
  C      216.743    -226.225    -264.067
  N      215.703    -225.510    -263.530
  O      215.203    -230.003    -265.148
  O      216.687    -229.318    -263.188
  H      211.777    -225.637    -264.001
  H      215.886    -229.446    -265.568
  H      215.958    -221.468    -266.409
  H      217.038    -227.202    -263.703
  H      214.604    -225.175    -261.813
  H      213.481    -227.031    -264.010
  H      214.282    -220.356    -265.215
  H      212.021    -227.851    -262.306
  H      213.507    -221.171    -263.893
  H      214.029    -227.576    -260.249
  H      215.047    -229.653    -261.088
  H      213.274    -229.795    -261.038
  P      210.640    -225.889    -261.273
  C      209.602    -226.673    -259.015
  O      209.877    -226.968    -260.371
  O      210.356    -226.369    -262.769
  O      210.263    -224.463    -261.047
  H      209.582    -225.908    -263.137
  H      209.814    -225.627    -258.770
  H      210.211    -227.318    -258.380
  H      208.546    -226.874    -258.816
  H      215.152    -233.559    -264.009
  H      215.499    -232.374    -265.245
  H      213.968    -232.335    -264.403

 3  4  5  6  7  8  9  10  11  12  23  26  30  31  33  0
 6-311+G(2d,p)
 ****
 35  36  37  38 0
 6-311+G(2d,p)
 ****
 1  2  13  14  15  16  17  18  19  20  21  22  24  25  27  28  29 0
 3-21G
 ****
 32  34  39  40  41  42  43  44  45  46  47  48  49 0
 3-21G
 ****


