%nproc=1
%NoSave
%Mem=1900MB
#P OB98/GEN NMR

erre ene a

0 1
  C     1373.433    -675.164    -306.139
  O     1374.126    -673.939    -305.986
  P     1374.519    -673.389    -304.530
  C     1376.365    -671.793    -303.645
  O     1375.698    -672.312    -304.791
  C     1376.736    -670.331    -303.884
  O     1377.682    -670.257    -304.968
  C     1375.560    -669.441    -304.281
  O     1374.768    -669.115    -303.167
  C     1376.302    -668.272    -304.939
  O     1376.810    -667.385    -303.924
  C     1377.496    -668.983    -305.650
  N     1377.242    -669.170    -307.062
  C     1378.210    -668.679    -307.952
  O     1379.232    -668.093    -307.516
  N     1378.051    -668.858    -309.291
  C     1377.011    -669.502    -309.741
  N     1376.927    -669.721    -311.082
  C     1375.935    -669.996    -308.850
  C     1376.121    -669.820    -307.544
  O     1374.877    -674.470    -303.534
  O     1373.298    -672.469    -304.083
  H     1377.100    -666.560    -304.379
  H     1372.591    -672.965    -303.609
  H     1375.059    -670.495    -309.263
  H     1375.386    -670.170    -306.835
  H     1378.420    -668.420    -305.495
  H     1375.696    -667.672    -305.616
  H     1374.946    -669.931    -305.047
  H     1377.226    -669.943    -302.977
  H     1377.776    -669.520    -311.618
  H     1377.271    -672.362    -303.461
  H     1376.301    -670.429    -311.451
  H     1375.695    -671.892    -302.774
  P     1373.296    -668.546    -303.455
  C     1370.976    -669.014    -302.372
  O     1372.271    -669.495    -302.663
  O     1373.058    -668.875    -305.003
  O     1373.149    -667.073    -303.160
  H     1373.205    -668.073    -305.549
  H     1370.356    -669.842    -302.076
  H     1370.522    -668.536    -303.249
  H     1371.039    -668.297    -301.535
  H     1373.267    -675.352    -307.179
  H     1372.493    -675.108    -305.632
  H     1374.016    -675.958    -305.722

 3  4  5  6  7  8  9  10  11  12  13  23  27  28  29  30  32 0
 6-311+G(2d,p)
 ****
 34  35 0
 6-311+G(2d,p)
 ****
 1  2  14  15  16  17  18  19  20  21  22  24  25  26 0
 3-21G
 ****
 31  33  36  37  38  39  40  41  42  43  44  45  46 0
 3-21G
 ****


