%nproc=1
%NoSave
%Mem=1900MB
#P OB98/GEN NMR

erre ene a

0 1
  C     -186.969       7.304    -100.269
  O     -188.330       7.244    -100.697
  P     -189.194       8.496    -101.179
  C     -191.102       9.991    -100.153
  O     -190.240       8.866    -100.027
  C     -192.202       9.967     -99.080
  O     -193.061       8.805     -99.323
  C     -191.640       9.827     -97.663
  O     -192.294      10.658     -96.706
  C     -191.689       8.325     -97.424
  O     -191.639       7.969     -96.049
  C     -192.956       7.925     -98.179
  N     -195.275       3.382     -97.986
  C     -195.539       4.530     -97.268
  N     -196.539       4.462     -96.360
  N     -194.867       5.640     -97.405
  C     -193.845       5.553     -98.281
  C     -193.477       4.467     -99.046
  C     -194.256       3.254     -98.921
  O     -194.079       2.217     -99.550
  N     -192.389       4.753     -99.835
  C     -192.088       6.005     -99.535
  N     -192.951       6.537     -98.599
  O     -189.727       8.426    -102.570
  O     -188.150       9.725    -101.120
  H     -192.449       8.317     -95.623
  H     -188.414      10.341    -101.833
  H     -195.840       2.558     -97.855
  H     -191.280       6.575     -99.967
  H     -193.853       8.051     -97.569
  H     -190.803       7.887     -97.900
  H     -197.014       3.604     -96.116
  H     -190.596      10.163     -97.621
  H     -196.580       5.227     -95.688
  H     -192.814      10.868     -99.187
  H     -191.549       9.918    -101.150
  H     -190.530      10.917    -100.111
  P     -191.736      11.961     -95.968
  C     -190.385      12.489     -93.858
  O     -191.189      11.538     -94.527
  O     -193.040      12.826     -95.620
  O     -190.776      12.773     -96.785
  H     -192.993      13.691     -96.080
  H     -189.865      11.993     -93.029
  H     -191.014      13.282     -93.453
  H     -189.639      12.920     -94.533
  H     -186.636       6.323    -100.002
  H     -186.890       7.951     -99.420
  H     -186.361       7.683    -101.064

 3  4  5  6  7  8  9  10  11  12  23  26  30  31 0
 6-311+G(2d,p)
 ****
 33  35  36  37  38 0
 6-311+G(2d,p)
 ****
 1  2  13  14  15  16  17  18  19  20  21  22  24  25 0
 3-21G
 ****
 27  28  29  32  34  39  40  41  42  43  44  45  46  47  48  49 0
 3-21G
 ****


