%nproc=1
%NoSave
%Mem=1900MB
#P OB98/GEN NMR

erre ene a

0 1
  C      714.248    -955.285     470.702
  O      712.885    -955.567     471.081
  P      712.650    -956.697     472.206
  C      712.435    -955.005     474.188
  O      713.176    -956.062     473.575
  C      711.739    -955.516     475.460
  O      712.710    -956.063     476.342
  C      711.009    -954.438     476.218
  O      709.759    -954.128     475.603
  C      710.871    -955.097     477.588
  O      709.681    -955.902     477.663
  C      712.152    -955.965     477.696
  N      713.111    -955.424     478.622
  C      712.773    -955.552     479.987
  O      711.717    -956.081     480.288
  N      713.644    -955.056     480.918
  C      714.737    -954.447     480.555
  N      715.557    -953.985     481.542
  C      715.111    -954.278     479.142
  C      714.270    -954.778     478.233
  O      713.740    -957.789     471.846
  O      711.258    -957.252     472.230
  H      708.941    -955.313     477.398
  H      713.453    -958.694     472.139
  H      716.044    -953.785     478.890
  H      714.462    -954.700     477.160
  H      711.904    -956.967     478.007
  H      710.788    -954.344     478.393
  H      711.633    -953.538     476.299
  H      711.048    -956.332     475.168
  H      715.259    -954.100     482.478
  H      711.680    -954.659     473.463
  H      716.437    -953.520     481.336
  H      713.097    -954.178     474.417
  P      709.168    -952.674     475.832
  C      709.045    -952.195     473.305
  O      709.624    -951.828     474.524
  O      710.120    -952.076     476.957
  O      707.707    -952.581     476.180
  H      709.765    -951.215     477.262
  H      709.338    -951.467     472.539
  H      707.972    -952.246     473.363
  H      709.446    -953.189     472.971
  H      714.259    -954.521     469.953
  H      714.701    -956.173     470.313
  H      714.795    -954.952     471.559

 3  4  5  6  7  8  9  10  11  12  13  21  23  27  28  29  30  32 0
 6-311+G(2d,p)
 ****
 34  35 0
 6-311+G(2d,p)
 ****
 1  2  14  15  16  17  18  19  20  22  24  25  26 0
 3-21G
 ****
 31  33  36  37  38  39  40  41  42  43  44  45  46 0
 3-21G
 ****


