%nproc=1
%NoSave
%Mem=1900MB
#P OB98/GEN NMR

erre ene a

0 1
  C      298.333      73.433    -346.341
  O      297.448      73.574    -347.432
  H      298.059      74.157    -345.569
  H      299.359      73.636    -346.663
  H      298.265      72.424    -345.919
  P      297.564      72.480    -348.603
  C      295.547      71.528    -349.986
  O      296.242      72.659    -349.496
  C      294.328      71.961    -350.809
  O      293.372      72.596    -349.922
  C      294.661      72.952    -351.926
  O      293.808      72.681    -353.040
  C      294.283      74.297    -351.324
  O      294.016      75.275    -352.321
  C      293.081      73.906    -350.451
  N      292.830      74.874    -349.383
  C      292.440      76.158    -349.781
  O      292.336      76.434    -350.977
  N      292.219      77.112    -348.817
  C      292.433      76.826    -347.570
  N      292.219      77.824    -346.666
  C      292.883      75.501    -347.109
  C      293.052      74.579    -348.057
  O      297.304      71.118    -347.804
  O      298.852      72.517    -349.356
  H      293.693      76.093    -351.882
  H      296.561      71.171    -347.181
  H      293.058      75.314    -346.060
  H      293.375      73.573    -347.809
  H      292.171      73.824    -351.061
  H      295.104      74.671    -350.696
  H      295.707      72.905    -352.236
  H      293.842      71.064    -351.209
  H      291.929      78.723    -347.029
  H      295.216      70.892    -349.160
  H      292.405      77.732    -345.680
  H      296.235      70.948    -350.608
  P      294.306      71.678    -354.184
  C      293.877      71.258    -356.701
  O      293.694      72.136    -355.595
  O      294.175      70.224    -353.874
  O      295.859      72.073    -354.347
  H      296.367      71.245    -354.457
  H      293.423      71.682    -357.572
  H      293.422      70.314    -356.486
  H      294.923      71.118    -356.876

 6  7  8  9  10  11  12  13  14  15  16  26  30  31  32  33  35 0
 6-311+G(2d,p)
 ****
 37  38 0
 6-311+G(2d,p)
 ****
 1  2  3  4  5  17  18  19  20  21  22  23  24  25 0
 3-21G
 ****
 27  28  29  34  36  39  40  41  42  43  44  45  46 0
 3-21G
 ****


