%nproc=1
%NoSave
%Mem=1900MB
#P OB98/GEN NMR

erre ene a

0 1
  C     -129.675     -61.001    -211.277
  O     -128.608     -61.929    -211.230
  H     -130.193     -61.014    -210.316
  H     -130.380     -61.281    -212.064
  H     -129.293     -59.994    -211.460
  P     -127.708     -62.048    -212.552
  C     -125.644     -63.493    -213.221
  O     -126.531     -63.080    -212.194
  C     -124.331     -64.006    -212.619
  O     -123.497     -62.859    -212.272
  C     -124.513     -64.825    -211.332
  O     -123.429     -65.765    -211.246
  C     -124.351     -63.758    -210.260
  O     -124.160     -64.341    -208.991
  C     -123.191     -62.971    -210.865
  N     -119.751     -59.576    -209.194
  C     -119.609     -60.780    -209.791
  N     -120.572     -61.620    -210.219
  C     -121.792     -61.102    -209.997
  C     -122.093     -59.884    -209.408
  C     -121.003     -59.103    -208.990
  N     -121.143     -57.879    -208.374
  N     -123.463     -59.694    -209.349
  C     -123.975     -60.780    -209.894
  N     -123.007     -61.659    -210.293
  O     -126.967     -60.631    -212.621
  O     -128.449     -62.354    -213.809
  H     -124.170     -63.656    -208.288
  H     -127.458     -60.028    -213.208
  H     -118.586     -61.114    -209.944
  H     -125.035     -60.983    -210.014
  H     -122.242     -63.511    -210.772
  H     -125.251     -63.136    -210.190
  H     -125.465     -65.363    -211.291
  H     -123.784     -64.575    -213.382
  H     -125.444     -62.636    -213.875
  H     -126.111     -64.291    -213.809
  H     -120.311     -57.388    -208.092
  H     -122.072     -57.519    -208.201
  P     -123.753     -67.338    -211.227
  C     -122.236     -69.470    -211.158
  O     -122.444     -68.128    -210.741
  O     -123.787     -67.689    -212.793
  O     -125.036     -67.727    -210.570
  H     -124.380     -68.451    -212.943
  H     -121.320     -69.835    -210.742
  H     -122.182     -69.507    -212.226
  H     -123.049     -70.078    -210.820

 6  7  8  9  10  11  12  13  14  15  25  28  32  33  34  35 0
 6-311+G(2d,p)
 ****
 36  37  40 0
 6-311+G(2d,p)
 ****
 1  2  3  4  5  16  17  18  19  20  21  22  23  24 0
 3-21G
 ****
 26  27  29  30  31  38  39 41  42  43  44  45  46  47  48 0
 3-21G
 ****


