%nproc=1
%NoSave
%Mem=1900MB
#P OB98/GEN NMR

erre ene a

0 1
  C     -291.267    -776.261     104.376
  O     -292.154    -777.390     104.380
  P     -293.426    -777.364     105.373
  C     -295.243    -777.599     103.503
  O     -294.639    -778.153     104.681
  C     -295.789    -778.724     102.626
  O     -294.732    -779.352     101.874
  C     -296.432    -779.878     103.410
  O     -297.747    -779.530     103.850
  C     -296.428    -780.991     102.368
  O     -297.563    -780.865     101.468
  C     -295.112    -780.733     101.606
  N     -294.057    -781.664     101.984
  C     -294.140    -782.937     101.440
  O     -295.084    -783.313     100.721
  N     -293.128    -783.800     101.786
  C     -292.101    -783.555     102.638
  O     -291.232    -784.362     102.907
  C     -292.110    -782.210     103.241
  C     -293.063    -781.352     102.904
  O     -293.904    -775.843     105.272
  O     -293.149    -777.730     106.812
  H     -298.355    -781.107     101.997
  H     -294.355    -775.565     106.111
  H     -293.152    -784.737     101.376
  H     -291.323    -781.972     103.949
  H     -293.100    -780.356     103.353
  H     -295.261    -780.792     100.537
  H     -296.492    -781.993     102.813
  H     -295.788    -780.172     104.255
  H     -296.495    -778.305     101.911
  H     -294.491    -777.054     102.941
  H     -296.044    -776.932     103.798
  P     -298.397    -780.503     104.973
  C     -298.729    -778.730     106.866
  O     -299.301    -779.548     105.869
  O     -297.111    -780.839     105.876
  O     -299.056    -781.698     104.363
  H     -296.499    -780.086     105.933
  H     -297.749    -778.385     106.568
  H     -298.676    -779.276     107.800
  H     -299.385    -777.862     107.027
  H     -290.480    -776.428     103.671
  H     -290.849    -776.132     105.353
  H     -291.811    -775.381     104.102

 3  4  5  6  7  8  9  10  11  12  13  23  28  29  30  31  32 0
 6-311+G(2d,p)
 ****
 33  34 0
 6-311+G(2d,p)
 ****
 1  2  14  15  16  17  18  19  20  21  22  24  25  26 0
 3-21G
 ****
 27  35  36  37  38  39  40  41  42  43  44  45 0
 3-21G
 ****


