%nproc=1
%NoSave
%Mem=1900MB
#P OB98/GEN NMR

erre ene a

0 1
  C      262.202     355.457    -630.656
  O      262.379     355.425    -629.257
  H      261.175     355.761    -630.876
  H      262.365     354.459    -631.076
  H      262.888     356.174    -631.115
  P      263.874     355.170    -628.723
  C      265.281     356.286    -626.803
  O      264.009     356.051    -627.382
  C      265.171     357.321    -625.678
  O      264.961     358.633    -626.272
  C      264.017     357.060    -624.708
  O      264.431     357.458    -623.394
  C      262.929     358.004    -625.191
  O      261.989     358.315    -624.169
  C      263.767     359.192    -625.694
  N      263.041     360.021    -626.664
  C      263.044     361.400    -626.436
  O      263.632     361.866    -625.457
  N      262.348     362.218    -627.294
  C      261.656     361.690    -628.255
  N      260.969     362.553    -629.058
  C      261.590     360.239    -628.505
  C      262.302     359.469    -627.686
  O      264.748     355.975    -629.793
  O      264.242     353.729    -628.579
  H      261.487     357.499    -623.947
  H      264.385     356.854    -630.004
  H      260.984     359.848    -629.320
  H      262.312     358.392    -627.801
  H      264.068     359.832    -624.859
  H      262.379     357.545    -626.028
  H      263.703     356.018    -624.695
  H      266.133     357.365    -625.147
  H      261.031     363.540    -628.841
  H      265.984     356.645    -627.560
  H      260.356     362.259    -629.798
  H      265.657     355.337    -626.404
  P      265.370     356.482    -622.538
  C      267.829     356.868    -621.830
  O      266.496     357.350    -621.786
  O      265.874     355.272    -623.247
  O      264.404     356.051    -621.319
  H      264.548     355.096    -621.148
  H      268.468     357.538    -621.294
  H      268.152     356.805    -622.848
  H      267.872     355.897    -621.382

 6  7  8  9  10  11  12  13  14  15  16  26  30  31  32  33  35 0
 6-311+G(2d,p)
 ****
 37  38 0
 6-311+G(2d,p)
 ****
 1  2  3  4  5  17  18  19  20  21  22  23  24  25 0
 3-21G
 ****
 27  28  29  34  36  39  40  41  42  43  44  45  46 0
 3-21G
 ****


