%nproc=1
%NoSave
%Mem=1900MB
#P OB98/GEN NMR

erre ene a

0 1
  C     -498.765     919.294    -649.294
  O     -498.735     917.969    -649.784
  P     -497.931     917.589    -651.131
  C     -500.058     916.424    -652.071
  O     -498.691     916.294    -651.716
  C     -500.428     915.403    -653.157
  O     -499.850     915.858    -654.418
  C     -499.933     913.974    -652.905
  O     -500.917     913.079    -653.418
  C     -498.651     913.920    -653.723
  O     -498.284     912.582    -654.032
  C     -499.039     914.771    -654.931
  N     -497.871     915.282    -655.654
  C     -497.540     914.675    -656.862
  O     -498.204     913.722    -657.288
  N     -496.481     915.146    -657.570
  C     -495.745     916.108    -657.073
  N     -494.730     916.593    -657.853
  C     -495.993     916.714    -655.752
  C     -497.088     916.264    -655.116
  O     -496.465     917.440    -650.966
  O     -498.380     918.718    -652.174
  H     -498.994     912.189    -654.578
  H     -497.831     919.540    -652.116
  H     -495.336     917.489    -655.366
  H     -497.355     916.679    -654.150
  H     -499.693     914.193    -655.614
  H     -497.830     914.383    -653.152
  H     -499.782     913.777    -651.835
  H     -501.526     915.416    -653.290
  H     -494.704     916.286    -658.813
  H     -500.230     917.434    -652.448
  H     -494.332     917.518    -657.679
  H     -500.700     916.299    -651.182
  P     -501.740     912.153    -652.391
  C     -501.396     909.872    -653.559
  O     -502.290     910.874    -653.202
  O     -503.075     913.048    -652.181
  O     -501.105     911.901    -651.072
  H     -503.469     912.822    -651.323
  H     -501.931     909.108    -654.099
  H     -500.923     909.426    -652.690
  H     -500.615     910.278    -654.226
  H     -499.348     919.330    -648.398
  H     -499.202     919.936    -650.030
  H     -497.768     919.619    -649.084

 3  4  5  6  7  8  9  10  11  12  13  23  27  28  29  30  32 0
 6-311+G(2d,p)
 ****
 34  35 0
 6-311+G(2d,p)
 ****
 1  2  14  15  16  17  18  19  20  21  22  24  25  26 0
 3-21G
 ****
 31  33  36  37  38  39  40  41  42  43  44  45  46 0
 3-21G
 ****


