%nproc=1
%NoSave
%Mem=1900MB
#P OB98/GEN NMR

erre ene a

0 1
  C       29.343     -72.461     -32.705
  O       28.432     -73.054     -33.607
  H       29.015     -71.451     -32.445
  H       29.379     -73.063     -31.792
  H       30.344     -72.427     -33.144
  P       28.237     -72.326     -35.023
  C       27.910     -69.807     -35.570
  O       27.616     -70.884     -34.690
  C       26.901     -68.684     -35.360
  O       25.660     -68.996     -36.032
  C       26.530     -68.438     -33.902
  O       27.494     -67.648     -33.228
  C       25.222     -67.686     -34.070
  O       25.490     -66.322     -34.445
  C       24.576     -68.442     -35.239
  N       20.510     -69.645     -32.375
  C       21.162     -68.480     -32.570
  N       22.240     -68.243     -33.345
  C       22.640     -69.368     -33.958
  C       22.080     -70.630     -33.850
  C       20.956     -70.749     -33.016
  N       20.297     -71.940     -32.803
  N       22.790     -71.545     -34.604
  C       23.740     -70.837     -35.181
  N       23.698     -69.519     -34.815
  O       27.004     -73.108     -35.682
  O       29.436     -72.300     -35.909
  H       26.152     -66.355     -35.161
  H       27.004     -72.978     -36.648
  H       20.767     -67.624     -32.029
  H       24.477     -71.232     -35.868
  H       23.992     -67.784     -35.893
  H       24.624     -67.657     -33.158
  H       26.338     -69.379     -33.370
  H       27.308     -67.772     -35.817
  H       27.849     -70.160     -36.603
  H       19.625     -71.955     -32.050
  H       20.713     -72.789     -33.156
  H       28.925     -69.449     -35.373
  P       27.865     -68.062     -31.722
  C       26.599     -67.916     -29.455
  O       26.691     -67.471     -30.805
  O       29.113     -67.124     -31.385
  O       28.172     -69.510     -31.531
  H       29.680     -67.531     -30.702
  H       25.772     -67.435     -28.977
  H       27.502     -67.671     -28.936
  H       26.454     -68.976     -29.438

 6  7  8  9  10  11  12  13  14  15  25  28  32  33  34  35 0
 6-311+G(2d,p)
 ****
 36  39  40 0
 6-311+G(2d,p)
 ****
 1  2  3  4  5  16  17  18  19  20  21  22  23  24 0
 3-21G
 ****
 26  27  29  30  31  37  38  41  42  43  44  45  46  47 0
 3-21G
 ****
 48 0
 3-21G
 ****


