%nproc=1
%NoSave
%Mem=1900MB
#P OB98/GEN NMR

erre ene a

0 1
  C     -110.504     205.817      94.348
  O     -110.029     206.867      93.500
  P     -110.595     206.917      91.997
  C     -108.530     205.877      90.774
  O     -109.868     205.718      91.213
  C     -108.052     204.635      90.007
  O     -108.679     204.606      88.687
  C     -106.534     204.558      89.804
  O     -106.173     203.171      89.917
  C     -106.350     205.035      88.375
  O     -105.123     204.585      87.816
  C     -107.617     204.455      87.722
  N     -107.946     205.103      86.455
  C     -107.298     204.632      85.321
  O     -106.428     203.763      85.358
  N     -107.652     205.223      84.139
  C     -108.515     206.272      83.995
  O     -108.798     206.764      82.911
  C     -109.081     206.803      85.247
  C     -108.772     206.207      86.394
  O     -109.896     208.240      91.436
  O     -112.085     206.909      91.939
  H     -108.990     208.374      91.766
  H     -105.099     204.824      86.867
  H     -107.221     204.869      83.292
  H     -109.730     207.674      85.178
  H     -109.159     206.589      87.337
  H     -107.494     203.383      87.534
  H     -106.366     206.130      88.341
  H     -105.973     205.147      90.538
  H     -108.402     203.752      90.552
  H     -107.869     206.031      91.634
  H     -108.456     206.782      90.145
  P     -105.479     202.678      91.283
  C     -102.911     203.156      91.035
  O     -104.175     203.581      91.498
  O     -104.861     201.277      90.784
  O     -106.400     202.523      92.446
  H     -104.390     201.346      89.945
  H     -102.219     203.997      91.065
  H     -102.977     202.793      90.004
  H     -102.524     202.357      91.680
  H     -110.049     205.904      95.312
  H     -110.252     204.870      93.918
  H     -111.567     205.892      94.447

 3  4  5  6  7  8  9  10  11  12  13  24  28  29  30  31  32 0
 6-311+G(2d,p)
 ****
 33  34 0
 6-311+G(2d,p)
 ****
 1  2  14  15  16  17  18  19  20  21  22  23  25  26  27 0
 3-21G
 ****
 35  36  37  38  39  40  41  42  43  44  45 0
 3-21G
 ****


