%nproc=1
%NoSave
%Mem=1900MB
#P OB98/GEN NMR

erre ene a

0 1
  C     -139.219     -40.979     -19.748
  O     -138.231     -40.271     -20.478
  P     -138.636     -38.842     -21.089
  C     -136.326     -37.717     -20.684
  O     -137.279     -38.182     -21.631
  C     -135.106     -37.147     -21.400
  O     -134.274     -38.206     -21.916
  C     -135.439     -36.277     -22.604
  O     -135.795     -34.956     -22.235
  C     -134.111     -36.282     -23.345
  O     -133.209     -35.336     -22.742
  C     -133.618     -37.716     -23.111
  N     -132.554     -38.756     -27.946
  C     -131.920     -37.901     -27.066
  N     -130.895     -37.179     -27.566
  N     -132.258     -37.769     -25.812
  C     -133.307     -38.549     -25.455
  C     -134.014     -39.436     -26.235
  C     -133.637     -39.564     -27.624
  O     -134.192     -40.264     -28.465
  N     -135.005     -40.053     -25.517
  C     -134.901     -39.544     -24.306
  N     -133.914     -38.595     -24.228
  O     -138.976     -37.969     -19.792
  O     -139.769     -38.878     -22.057
  H     -132.500     -35.171     -23.396
  H     -139.491     -37.179     -20.047
  H     -132.259     -38.820     -28.906
  H     -135.524     -39.817     -23.464
  H     -132.540     -37.752     -22.930
  H     -134.210     -36.000     -24.398
  H     -130.626     -37.188     -28.539
  H     -136.207     -36.745     -23.234
  H     -130.452     -36.497     -26.962
  H     -134.517     -36.580     -20.668
  H     -136.021     -38.547     -20.043
  H     -136.789     -36.950     -20.055
  P     -136.050     -33.914     -23.432
  C     -137.858     -32.559     -22.151
  O     -136.566     -32.573     -22.725
  O     -137.355     -34.499     -24.147
  O     -134.904     -33.765     -24.376
  H     -137.379     -34.232     -25.084
  H     -137.940     -31.686     -21.495
  H     -138.036     -33.458     -21.557
  H     -138.613     -32.479     -22.938
  H     -138.812     -41.906     -19.403
  H     -140.060     -41.172     -20.381
  H     -139.531     -40.393     -18.909

 3  4  5  6  7  8  9  10  11  12  23  26  30  31 0
 6-311+G(2d,p)
 ****
 33  35  36  37  38 0
 6-311+G(2d,p)
 ****
 1  2  13  14  15  16  17  18  19  20  21  22  24  25 0
 3-21G
 ****
 27  28  29  32  34  39  40  41  42  43  44  45  46  47  48  49 0
 3-21G
 ****


