%nproc=1
%NoSave
%Mem=1900MB
#P OB98/GEN NMR

erre ene a

0 1
  C      112.056     -36.735     -18.481
  O      111.385     -36.867     -17.230
  P      110.738     -35.658     -16.415
  C      112.810     -34.599     -15.206
  O      111.849     -34.518     -16.248
  C      113.555     -33.274     -14.969
  O      114.426     -33.001     -16.097
  C      112.568     -32.109     -14.891
  O      111.906     -31.819     -13.675
  C      113.320     -30.927     -15.484
  O      113.970     -30.134     -14.490
  C      114.355     -31.591     -16.397
  N      113.367     -28.274     -20.164
  C      113.515     -28.040     -18.811
  N      113.328     -26.769     -18.396
  N      113.802     -28.971     -17.943
  C      113.875     -30.210     -18.478
  C      113.728     -30.571     -19.798
  C      113.468     -29.522     -20.762
  O      113.340     -29.674     -21.972
  N      113.848     -31.927     -19.964
  C      114.042     -32.388     -18.747
  N      114.074     -31.382     -17.808
  O      109.973     -36.039     -15.193
  O      109.693     -35.020     -17.466
  H      113.313     -29.910     -13.808
  H      108.944     -34.674     -16.938
  H      113.170     -27.515     -20.792
  H      114.171     -33.432     -18.490
  H      115.358     -31.185     -16.218
  H      112.630     -30.257     -16.012
  H      112.989     -26.032     -18.994
  H      111.760     -32.327     -15.601
  H      113.221     -26.632     -17.389
  H      114.210     -33.347     -14.097
  H      113.513     -35.389     -15.485
  H      112.332     -34.922     -14.281
  P      110.505     -32.424     -13.191
  C      109.095     -30.848     -14.638
  O      109.438     -32.194     -14.361
  O      110.012     -31.402     -12.063
  O      110.568     -33.817     -12.657
  H      109.306     -31.805     -11.524
  H      108.165     -30.829     -15.210
  H      109.887     -30.383     -15.230
  H      108.954     -30.283     -13.710
  H      112.393     -37.696     -18.808
  H      112.896     -36.082     -18.368
  H      111.383     -36.327     -19.206

 3  4  5  6  7  8  9  10  11  12  23  26  30  31 0
 6-311+G(2d,p)
 ****
 33  35  36  37  38 0
 6-311+G(2d,p)
 ****
 1  2  13  14  15  16  17  18  19  20  21  22  24  25 0
 3-21G
 ****
 27  28  29  32  34  39  40  41  42  43  44  45  46  47  48  49 0
 3-21G
 ****


