%nproc=1
%NoSave
%Mem=1900MB
#P OB98/GEN NMR

erre ene a

0 1
  C      320.061    -118.963    -334.434
  O      320.621    -117.691    -334.701
  H      319.074    -118.823    -333.983
  H      320.682    -119.524    -333.732
  H      319.948    -119.528    -335.362
  P      322.135    -117.624    -335.222
  C      321.277    -117.266    -337.638
  O      322.088    -116.771    -336.578
  C      321.171    -116.225    -338.747
  O      320.404    -115.092    -338.298
  C      322.522    -115.669    -339.176
  O      323.215    -116.595    -339.989
  C      322.098    -114.386    -339.865
  O      321.629    -114.639    -341.196
  C      320.938    -113.918    -338.954
  N      321.359    -112.919    -337.975
  C      321.424    -111.598    -338.434
  O      321.129    -111.329    -339.598
  N      321.842    -110.624    -337.564
  C      322.151    -110.930    -336.343
  N      322.556    -109.916    -335.531
  C      322.084    -112.307    -335.814
  C      321.688    -113.242    -336.676
  O      322.868    -118.927    -335.338
  O      322.845    -116.626    -334.190
  H      322.373    -115.081    -341.660
  H      323.207    -117.121    -333.432
  H      322.344    -112.519    -334.789
  H      321.608    -114.279    -336.369
  H      320.126    -113.491    -339.552
  H      322.919    -113.676    -339.929
  H      323.119    -115.403    -338.299
  H      320.644    -116.678    -339.598
  H      322.595    -108.988    -335.938
  H      320.287    -117.473    -337.218
  H      322.736    -110.023    -334.543
  H      321.690    -118.203    -338.034
  P      324.778    -116.398    -340.301
  C      325.532    -118.478    -338.974
  O      325.410    -117.874    -340.262
  O      325.468    -115.378    -339.461
  O      324.789    -116.049    -341.868
  H      324.473    -115.124    -342.034
  H      325.963    -119.452    -339.076
  H      324.564    -118.561    -338.526
  H      326.161    -117.873    -338.355

 6  7  8  9  10  11  12  13  14  15  16  26  30  31  32  33  35 0
 6-311+G(2d,p)
 ****
 37  38 0
 6-311+G(2d,p)
 ****
 1  2  3  4  5  17  18  19  20  21  22  23  24  25 0
 3-21G
 ****
 27  28  29  34  36  39  40  41  42  43  44  45  46 0
 3-21G
 ****


