%nproc=1
%NoSave
%Mem=1900MB
#P OB98/GEN NMR

erre ene a

0 1
  C     -317.937     112.942    -220.337
  O     -317.219     114.158    -220.260
  P     -316.042     114.468    -221.300
  C     -317.759     115.756    -222.713
  O     -316.452     115.763    -222.152
  C     -318.536     116.993    -222.279
  O     -318.941     116.885    -220.893
  C     -317.740     118.285    -222.356
  O     -317.556     118.719    -223.691
  C     -318.592     119.207    -221.493
  O     -319.709     119.714    -222.235
  C     -319.075     118.237    -220.392
  N     -318.356     118.415    -219.141
  C     -319.137     118.698    -218.016
  O     -320.351     118.868    -218.128
  N     -318.516     118.797    -216.796
  C     -317.223     118.739    -216.723
  N     -316.669     118.781    -215.483
  C     -316.354     118.602    -217.911
  C     -316.981     118.424    -219.071
  O     -315.588     113.304    -222.112
  O     -314.848     115.015    -220.382
  H     -314.032     114.531    -220.607
  H     -320.416     119.041    -222.170
  H     -315.279     118.628    -217.804
  H     -316.425     118.292    -219.993
  H     -320.147     118.381    -220.206
  H     -318.028     120.069    -221.121
  H     -316.761     118.144    -221.882
  H     -319.443     117.063    -222.897
  H     -317.297     118.857    -214.692
  H     -318.279     114.855    -222.377
  H     -315.735     118.425    -215.291
  H     -317.680     115.716    -223.807
  P     -316.333     119.718    -223.968
  C     -314.400     118.010    -224.167
  O     -315.246     118.925    -224.833
  O     -315.644     119.866    -222.531
  O     -316.732     121.050    -224.517
  H     -315.316     120.777    -222.415
  H     -313.982     117.319    -224.905
  H     -314.943     117.437    -223.412
  H     -313.578     118.555    -223.692
  H     -318.678     112.916    -219.565
  H     -317.262     112.121    -220.212
  H     -318.414     112.869    -221.292

 3  4  5  6  7  8  9  10  11  12  13  24  27  28  29  30  32 0
 6-311+G(2d,p)
 ****
 34  35 0
 6-311+G(2d,p)
 ****
 1  2  14  15  16  17  18  19  20  21  22  23  25  26 0
 3-21G
 ****
 31  33  36  37  38  39  40  41  42  43  44  45  46 0
 3-21G
 ****


