%nproc=1
%NoSave
%Mem=1900MB
#P OB98/GEN NMR

erre ene a

0 1
  C     -316.389     192.405    -546.455
  O     -317.700     192.406    -546.996
  P     -318.269     191.130    -547.791
  C     -317.843     189.951    -545.527
  O     -317.766     189.864    -546.943
  C     -318.854     188.937    -544.998
  O     -320.190     189.410    -545.255
  C     -318.767     187.559    -545.645
  O     -317.667     186.825    -545.138
  C     -320.145     187.000    -545.310
  O     -320.171     186.517    -543.959
  C     -321.040     188.247    -545.439
  N     -321.748     188.314    -546.714
  C     -323.003     187.697    -546.759
  O     -323.473     187.139    -545.766
  N     -323.716     187.753    -547.929
  C     -323.218     188.347    -548.967
  N     -323.999     188.433    -550.080
  C     -321.876     188.963    -548.978
  C     -321.205     188.912    -547.826
  O     -317.924     191.086    -549.238
  O     -319.835     191.140    -547.493
  H     -321.105     186.316    -543.750
  H     -320.357     191.676    -548.141
  H     -321.496     189.433    -549.875
  H     -320.223     189.355    -547.744
  H     -321.772     188.273    -544.622
  H     -320.452     186.175    -545.969
  H     -318.662     187.655    -546.734
  H     -318.723     188.856    -543.905
  H     -324.968     188.155    -549.967
  H     -318.171     190.960    -545.259
  H     -323.811     189.108    -550.807
  H     -316.850     189.775    -545.097
  P     -317.146     185.572    -545.998
  C     -315.075     186.725    -547.055
  O     -316.376     186.200    -547.262
  O     -318.496     184.969    -546.614
  O     -316.378     184.560    -545.218
  H     -318.777     184.184    -546.111
  H     -314.608     186.887    -548.026
  H     -314.462     186.026    -546.479
  H     -315.139     187.682    -546.530
  H     -316.203     193.340    -545.968
  H     -315.678     192.266    -547.243
  H     -316.296     191.609    -545.746

 3  4  5  6  7  8  9  10  11  12  13  23  27  28  29  30  32 0
 6-311+G(2d,p)
 ****
 34  35 0
 6-311+G(2d,p)
 ****
 1  2  14  15  16  17  18  19  20  21  22  24  25  26 0
 3-21G
 ****
 31  33  36  37  38  39  40  41  42  43  44  45  46 0
 3-21G
 ****


