%nproc=1
%NoSave
%Mem=1900MB
#P OB98/GEN NMR

erre ene a

0 1
  C      254.205    -548.765     103.495
  O      254.857    -548.502     102.263
  P      256.444    -548.679     102.111
  C      257.198    -546.552     103.345
  O      257.024    -547.185     102.082
  C      258.405    -545.620     103.307
  O      259.572    -546.396     102.948
  C      258.342    -544.494     102.274
  O      257.641    -543.335     102.702
  C      259.822    -544.156     102.132
  O      260.247    -543.347     103.243
  C      260.477    -545.543     102.206
  N      263.512    -545.436      98.088
  C      263.551    -544.763      99.260
  N      262.694    -544.834     100.301
  C      261.736    -545.743     100.062
  C      261.568    -546.511      98.922
  C      262.513    -546.332      97.898
  N      262.485    -547.036      96.715
  N      260.454    -547.320      99.035
  C      259.972    -547.053     100.232
  N      260.715    -546.114     100.893
  O      256.864    -549.562     100.988
  O      256.917    -549.220     103.538
  H      261.171    -543.086     103.069
  H      257.814    -549.606     103.469
  H      264.381    -544.068      99.376
  H      259.089    -547.511     100.657
  H      261.428    -545.530     102.746
  H      260.046    -543.595     101.220
  H      257.962    -544.853     101.308
  H      258.564    -545.217     104.314
  H      257.368    -547.330     104.097
  H      263.275    -546.940      96.097
  H      261.843    -547.815      96.639
  H      256.289    -546.011     103.614
  P      256.359    -542.895     101.837
  C      257.831    -541.196     100.493
  O      256.689    -541.422     101.292
  O      255.056    -543.040     102.544
  O      256.481    -543.806     100.529
  H      257.239    -543.611      99.955
  H      257.785    -540.179     100.100
  H      257.865    -541.894      99.657
  H      258.739    -541.300     101.097
  H      253.155    -548.588     103.388
  H      254.600    -548.120     104.252
  H      254.368    -549.785     103.774

 3  4  5  6  7  8  9  10  11  12  22  25  29  30  31  32 0
 6-311+G(2d,p)
 ****
 33  36  37 0
 6-311+G(2d,p)
 ****
 1  2  13  14  15  16  17  18  19  20  21  23  24  26 0
 3-21G
 ****
 27  28  34  35  38  39  40  41  42  43  44  45  46  47  48 0
 3-21G
 ****


