%nproc=1
%NoSave
%Mem=1900MB
#P OB98/GEN NMR

erre ene a

0 1
  C     -279.179     -28.590     218.603
  O     -279.185     -27.919     219.847
  H     -278.978     -29.653     218.776
  H     -278.385     -28.185     217.967
  H     -280.148     -28.489     218.108
  P     -279.638     -26.377     219.834
  C     -277.156     -25.623     219.425
  O     -278.505     -25.603     218.998
  C     -276.215     -25.305     218.256
  O     -276.589     -24.014     217.704
  C     -274.737     -25.233     218.656
  O     -273.953     -25.745     217.574
  C     -274.489     -23.744     218.802
  O     -273.111     -23.413     218.656
  C     -275.419     -23.172     217.717
  N     -275.763     -21.772     217.955
  C     -275.037     -20.815     217.235
  O     -274.152     -21.168     216.449
  N     -275.303     -19.487     217.444
  C     -276.169     -19.135     218.339
  N     -276.371     -17.804     218.515
  C     -276.921     -20.110     219.156
  C     -276.681     -21.397     218.908
  O     -279.362     -25.941     221.346
  O     -281.039     -26.152     219.370
  H     -273.035     -22.440     218.530
  H     -278.510     -26.255     221.691
  H     -277.628     -19.768     219.902
  H     -277.192     -22.174     219.455
  H     -274.943     -23.246     216.727
  H     -274.812     -23.399     219.793
  H     -274.520     -25.793     219.575
  H     -276.376     -26.049     217.469
  H     -275.814     -17.169     217.954
  H     -276.903     -26.606     219.835
  H     -276.977     -17.415     219.225
  H     -277.037     -24.884     220.222
  P     -273.689     -27.314     217.464
  C     -271.635     -27.112     219.020
  O     -272.848     -27.801     218.743
  O     -273.184     -27.803     216.147
  O     -275.148     -27.936     217.764
  H     -275.282     -28.684     217.150
  H     -271.177     -27.532     219.891
  H     -271.844     -26.077     219.191
  H     -270.971     -27.209     218.186

 6  7  8  9  10  11  12  13  14  15  16  26  30  31  32  33  35 0
 6-311+G(2d,p)
 ****
 37  38 0
 6-311+G(2d,p)
 ****
 1  2  3  4  5  17  18  19  20  21  22  23  24  25 0
 3-21G
 ****
 27  28  29  34  36  39  40  41  42  43  44  45  46 0
 3-21G
 ****


