%nproc=1
%NoSave
%Mem=1900MB
#P OB98/GEN NMR

erre ene a

0 1
  C      -38.712    -619.138    -120.800
  O      -39.215    -620.461    -120.771
  H      -38.264    -618.957    -121.778
  H      -37.940    -619.016    -120.032
  H      -39.513    -618.408    -120.644
  P      -40.201    -620.885    -119.585
  C      -42.147    -619.592    -120.682
  O      -41.691    -620.839    -120.175
  C      -43.164    -619.800    -121.809
  O      -42.460    -620.212    -123.014
  C      -44.158    -620.915    -121.467
  O      -45.418    -620.731    -122.113
  C      -43.485    -622.151    -122.047
  O      -44.398    -623.211    -122.325
  C      -42.822    -621.577    -123.296
  N      -40.532    -624.215    -127.013
  C      -41.846    -623.795    -126.927
  N      -42.654    -624.109    -127.968
  N      -42.328    -623.131    -125.903
  C      -41.426    -622.953    -124.901
  C      -40.112    -623.353    -124.869
  C      -39.578    -624.039    -126.022
  O      -38.433    -624.464    -126.140
  N      -39.512    -622.998    -123.687
  C      -40.458    -622.394    -122.998
  N      -41.637    -622.314    -123.712
  O      -40.179    -619.622    -118.603
  O      -39.841    -622.149    -118.864
  H      -43.872    -623.983    -122.608
  H      -40.448    -619.879    -117.708
  H      -40.214    -624.692    -127.840
  H      -40.348    -621.971    -122.010
  H      -43.507    -621.569    -124.141
  H      -42.762    -622.522    -121.319
  H      -42.378    -624.778    -128.670
  H      -44.320    -621.028    -120.400
  H      -43.666    -624.082    -127.780
  H      -43.664    -618.852    -122.046
  H      -41.269    -619.056    -121.054
  H      -42.580    -618.987    -119.881
  P      -46.752    -620.904    -121.241
  C      -47.931    -618.592    -121.778
  O      -47.920    -619.999    -121.856
  O      -46.402    -620.185    -119.867
  O      -47.177    -622.332    -121.046
  H      -46.396    -620.835    -119.135
  H      -48.809    -618.215    -122.259
  H      -47.062    -618.201    -122.265
  H      -47.930    -618.292    -120.751

 6  7  8  9  10  11  12  13  14  15  26  29  33  34 0
 6-311+G(2d,p)
 ****
 36  38  39  40  41 0
 6-311+G(2d,p)
 ****
 1  2  3  4  5  16  17  18  19  20  21  22  23  24  25 0
 3-21G
 ****
 27  28  30  31  32  35  37  42  43  44  45  46  47 0
 3-21G
 ****
 48  49 0
 3-21G
 ****


