%nproc=1
%NoSave
%Mem=1900MB
#P OB98/GEN NMR

erre ene a

0 1
  C     -244.231       4.654     254.403
  O     -243.487       5.309     253.394
  H     -243.853       4.972     255.378
  H     -244.122       3.570     254.322
  H     -245.289       4.929     254.333
  P     -243.774       4.925     251.865
  C     -243.757       2.745     250.473
  O     -243.454       3.360     251.718
  C     -243.727       1.214     250.602
  O     -242.367       0.795     250.903
  C     -244.633       0.670     251.720
  O     -245.067      -0.637     251.320
  C     -243.655       0.575     252.876
  O     -244.168      -0.208     253.927
  C     -242.410       0.057     252.144
  N     -241.194       0.224     252.924
  C     -240.804      -0.866     253.709
  O     -241.487      -1.892     253.723
  N     -239.673      -0.756     254.475
  C     -239.027       0.365     254.512
  N     -237.922       0.412     255.307
  C     -239.436       1.562     253.746
  C     -240.515       1.420     252.978
  O     -243.121       5.796     250.843
  O     -245.371       4.981     251.746
  H     -244.483      -1.077     253.592
  H     -245.637       5.788     251.269
  H     -238.873       2.480     253.827
  H     -240.894       2.244     252.378
  H     -242.522      -1.005     251.894
  H     -243.458       1.568     253.295
  H     -245.494       1.309     251.924
  H     -243.987       0.775     249.633
  H     -237.684      -0.427     255.823
  H     -243.002       3.070     249.752
  H     -237.352       1.235     255.429
  H     -244.744       3.064     250.123
  P     -246.615      -1.039     251.203
  C     -248.653      -1.164     252.785
  O     -247.231      -1.213     252.673
  O     -246.873      -2.199     250.293
  O     -247.347       0.275     250.645
  H     -248.116       0.007     250.108
  H     -248.935      -1.292     253.809
  H     -249.084      -1.946     252.196
  H     -249.006      -0.217     252.434

 6  7  8  9  10  11  12  13  14  15  16  26  30  31  32  33  35 0
 6-311+G(2d,p)
 ****
 37  38 0
 6-311+G(2d,p)
 ****
 1  2  3  4  5  17  18  19  20  21  22  23  24  25 0
 3-21G
 ****
 27  28  29  34  36  39  40  41  42  43  44  45  46 0
 3-21G
 ****


