%nproc=1
%NoSave
%Mem=1900MB
#P OB98/GEN NMR

erre ene a

0 1
  C     -898.000    -891.356    -898.864
  O     -896.610    -891.446    -898.754
  H     -898.330    -890.376    -898.564
  H     -898.270    -891.506    -899.914
  H     -898.480    -892.126    -898.264
  P     -895.990    -891.446    -897.264
  C     -895.400    -893.946    -897.574
  O     -896.040    -892.956    -896.744
  C     -895.350    -895.296    -896.864
  O     -894.410    -895.186    -895.744
  C     -896.710    -895.776    -896.344
  O     -896.830    -897.156    -896.484
  C     -896.650    -895.416    -894.844
  O     -897.520    -896.226    -894.084
  C     -895.150    -895.606    -894.564
  N     -893.890    -896.026    -889.624
  C     -894.100    -896.956    -890.604
  N     -894.480    -896.766    -891.864
  C     -894.500    -895.466    -892.144
  C     -894.200    -894.366    -891.304
  C     -893.910    -894.736    -889.974
  N     -893.660    -893.776    -888.984
  N     -894.360    -893.156    -892.004
  C     -894.660    -893.536    -893.254
  N     -894.740    -894.936    -893.394
  O     -897.190    -890.756    -896.404
  O     -894.720    -890.696    -897.064
  H     -897.240    -897.166    -894.164
  H     -897.160    -889.786    -896.534
  H     -894.090    -897.986    -890.214
  H     -894.820    -892.846    -894.024
  H     -894.930    -896.716    -894.374
  H     -896.900    -894.366    -894.694
  H     -897.540    -895.206    -896.804
  H     -894.910    -896.046    -897.554
  H     -894.350    -893.616    -897.794
  H     -893.520    -894.096    -888.074
  H     -893.760    -892.816    -889.204
  H     -895.920    -894.026    -898.514
  P     -898.220    -897.656    -897.134
  C     -897.070    -899.106    -898.944
  O     -897.970    -898.046    -898.684
  O     -899.120    -896.356    -897.214
  O     -898.870    -898.756    -896.294
  H     -900.000    -896.546    -896.834
  H     -896.996    -899.260    -900.000
  H     -897.428    -900.000    -898.477
  H     -896.106    -898.860    -898.551

 6  7  8  9  10  11  12  13  14  15  25  28  32  33  34  35 0
 6-311+G(2d,p)
 ****
 36  39  40 0
 6-311+G(2d,p)
 ****
 1  2  3  4  5  16  17  18  19  20  21  22  23  24 0
 3-21G
 ****
 26  27  29  30  31  37  38  41  42  43  44  45  46  47 0
 3-21G
 ****
 48 0
 3-21G
 ****


