%nproc=1
%NoSave
%Mem=1900MB
#P OB98/GEN NMR

erre ene a

0 1
  C      -60.141     196.460    -114.704
  O      -59.482     197.645    -114.300
  P      -58.019     198.005    -114.842
  C      -56.654     197.074    -112.884
  O      -56.994     196.923    -114.255
  C      -55.141     197.020    -112.674
  O      -54.630     195.759    -113.181
  C      -54.371     198.153    -113.367
  O      -53.302     198.533    -112.492
  C      -53.824     197.482    -114.612
  O      -52.697     198.164    -115.146
  C      -53.550     196.072    -114.083
  N      -53.441     195.087    -115.150
  C      -52.351     195.202    -116.012
  O      -51.605     196.182    -115.937
  N      -52.143     194.215    -116.945
  C      -53.051     193.305    -117.121
  N      -52.775     192.308    -118.009
  C      -54.336     193.298    -116.395
  C      -54.446     194.181    -115.401
  O      -57.602     199.426    -114.647
  O      -58.074     197.637    -116.403
  H      -57.784     198.411    -116.924
  H      -52.917     199.113    -115.251
  H      -55.112     192.596    -116.666
  H      -55.340     194.236    -114.792
  H      -52.623     196.056    -113.492
  H      -54.600     197.459    -115.387
  H      -54.997     199.026    -113.577
  H      -54.946     197.036    -111.593
  H      -51.869     192.321    -118.458
  H      -57.121     196.261    -112.325
  H      -53.259     191.409    -117.979
  H      -57.063     198.018    -112.501
  P      -52.843     200.078    -112.475
  C      -50.994     199.800    -114.274
  O      -52.213     200.419    -113.905
  O      -51.539     200.016    -111.537
  O      -53.826     201.057    -111.912
  H      -51.399     200.890    -111.128
  H      -50.683     200.201    -115.244
  H      -51.137     198.721    -114.373
  H      -50.215     200.015    -113.543
  H      -61.100     196.407    -114.233
  H      -59.556     195.611    -114.418
  H      -60.266     196.466    -115.767

 3  4  5  6  7  8  9  10  11  12  13  24  27  28  29  30  32 0
 6-311+G(2d,p)
 ****
 34  35 0
 6-311+G(2d,p)
 ****
 1  2  14  15  16  17  18  19  20  21  22  23  25  26 0
 3-21G
 ****
 31  33  36  37  38  39  40  41  42  43  44  45  46 0
 3-21G
 ****


