%nproc=1
%NoSave
%Mem=1900MB
#P OB98/GEN NMR

erre ene a

0 1
  C     -897.640     213.151     458.918
  O     -896.270     212.737     459.009
  P     -895.630     211.683     457.988
  C     -896.100     209.312     458.873
  O     -896.510     210.333     457.944
  C     -896.790     207.953     458.587
  O     -896.370     207.377     457.314
  C     -896.530     206.875     459.664
  O     -897.720     206.068     459.692
  C     -895.370     206.117     459.080
  O     -895.200     204.816     459.636
  C     -895.770     206.114     457.599
  N     -892.890     202.498     455.343
  C     -894.060     202.433     455.998
  N     -894.780     203.429     456.539
  C     -894.200     204.640     456.316
  C     -893.000     204.858     455.637
  C     -892.330     203.717     455.164
  N     -891.100     203.784     454.543
  N     -892.690     206.210     455.648
  C     -893.720     206.772     456.302
  N     -894.620     205.865     456.719
  O     -894.160     211.447     458.180
  O     -895.890     212.336     456.534
  H     -894.500     204.363     459.143
  H     -895.080     212.275     456.008
  H     -894.480     201.430     456.104
  H     -893.770     207.827     456.493
  H     -896.530     205.330     457.384
  H     -894.430     206.664     459.254
  H     -896.340     207.298     460.658
  H     -897.860     208.146     458.472
  H     -896.340     209.628     459.871
  H     -890.650     202.907     454.286
  H     -890.620     204.659     454.489
  H     -895.000     209.184     458.777
  P     -898.600     205.899     461.023
  C     -897.500     203.658     461.583
  O     -897.740     204.970     462.022
  O     -900.000     205.456     460.797
  O     -898.540     207.340     461.729
  H     -899.290     207.417     462.372
  H     -898.400     203.037     461.686
  H     -896.700     203.224     462.184
  H     -897.180     203.656     460.516
  H     -897.852     213.855     459.695
  H     -898.278     212.299     459.025
  H     -897.812     213.608     457.966

 3  4  5  6  7  8  9  10  11  12  22  25  29  30  31  32 0
 6-311+G(2d,p)
 ****
 33  36  37 0
 6-311+G(2d,p)
 ****
 1  2  13  14  15  16  17  18  19  20  21  23  24  26 0
 3-21G
 ****
 27  28  34  35  38  39  40  41  42  43  44  45  46  47  48 0
 3-21G
 ****


