%nproc=1
%NoSave
%Mem=1900MB
#P OB98/GEN NMR

erre ene a

0 1
  C      -52.647     -97.110    -454.169
  O      -52.129     -96.485    -455.327
  H      -52.193     -96.650    -453.290
  H      -52.405     -98.175    -454.169
  H      -53.731     -96.975    -454.115
  P      -52.643     -96.992    -456.757
  C      -52.838     -99.440    -457.560
  O      -52.010     -98.454    -456.958
  C      -52.599    -100.795    -456.905
  O      -52.494    -100.651    -455.474
  C      -53.712    -101.811    -457.158
  O      -53.555    -102.407    -458.437
  C      -53.471    -102.777    -456.011
  O      -52.339    -103.618    -456.314
  C      -53.121    -101.811    -454.863
  N      -54.717    -100.275    -450.299
  C      -53.471    -100.720    -450.700
  N      -52.527    -100.810    -449.736
  N      -53.183    -101.069    -451.929
  C      -54.242    -100.994    -452.767
  C      -55.529    -100.585    -452.482
  C      -55.817    -100.147    -451.135
  O      -56.906     -99.730    -450.742
  N      -56.345    -100.707    -453.576
  C      -55.550    -101.155    -454.530
  N      -54.264    -101.361    -454.086
  O      -52.406     -96.068    -457.915
  O      -54.198     -97.288    -456.530
  H      -51.558    -103.033    -456.342
  H      -54.742     -96.511    -456.752
  H      -54.877    -100.039    -449.336
  H      -55.849    -101.342    -455.553
  H      -52.402    -102.247    -454.158
  H      -54.316    -103.433    -455.813
  H      -52.769    -100.832    -448.755
  H      -54.706    -101.364    -457.035
  H      -51.623    -101.181    -450.000
  H      -51.634    -101.174    -457.261
  H      -52.587     -99.478    -458.624
  H      -53.897     -99.163    -457.460
  P      -54.832    -102.903    -459.280
  C      -56.873    -104.313    -458.558
  O      -55.481    -104.072    -458.400
  O      -54.539    -103.278    -460.691
  O      -55.895    -101.723    -459.131
  H      -55.806    -101.018    -459.822
  H      -57.171    -105.115    -457.915
  H      -57.076    -104.577    -459.575
  H      -57.419    -103.429    -458.303

 6  7  8  9  10  11  12  13  14  15  26  29  33  34 0
 6-311+G(2d,p)
 ****
 36  38  39  40  41 0
 6-311+G(2d,p)
 ****
 1  2  3  4  5  16  17  18  19  20  21  22  23  24  25 0
 3-21G
 ****
 27  28  30  31  32  35  37  42  43  44  45  46  47 0
 3-21G
 ****
 48  49 0
 3-21G
 ****


