%nproc=1
%NoSave
%Mem=1900MB
#P OB98/GEN NMR

erre ene a

0 1
  C     -291.034     243.104     -56.128
  O     -292.046     242.133     -55.946
  H     -291.366     244.075     -55.749
  H     -290.146     242.792     -55.572
  H     -290.779     243.184     -57.189
  P     -293.474     242.463     -56.599
  C     -295.005     241.158     -54.966
  O     -294.427     241.216     -56.261
  C     -295.529     239.757     -54.685
  O     -296.592     239.426     -55.604
  C     -294.498     238.646     -54.847
  O     -293.634     238.554     -53.723
  C     -295.407     237.429     -54.956
  O     -295.829     237.021     -53.642
  C     -296.604     237.980     -55.746
  N     -298.133     234.645     -59.340
  C     -298.335     234.687     -58.003
  N     -297.891     235.594     -57.110
  C     -297.175     236.552     -57.721
  C     -296.884     236.644     -59.073
  C     -297.391     235.629     -59.900
  N     -297.164     235.587     -61.259
  N     -296.137     237.771     -59.335
  C     -295.976     238.353     -58.165
  N     -296.580     237.650     -57.156
  O     -293.210     242.308     -58.173
  O     -294.033     243.806     -56.269
  H     -295.067     236.571     -53.230
  H     -293.743     242.970     -58.651
  H     -298.941     233.882     -57.595
  H     -295.439     239.278     -58.002
  H     -297.556     237.630     -55.329
  H     -294.923     236.570     -55.424
  H     -293.934     238.762     -55.780
  H     -295.949     239.748     -53.671
  H     -295.838     241.869     -54.905
  H     -297.711     234.957     -61.821
  H     -296.614     236.334     -61.673
  H     -294.248     241.438     -54.227
  P     -292.090     238.949     -53.942
  C     -291.071     236.976     -52.596
  O     -291.316     238.377     -52.658
  O     -292.086     240.530     -53.704
  O     -291.527     238.585     -55.272
  H     -291.332     240.935     -54.180
  H     -290.551     236.745     -51.690
  H     -290.476     236.681     -53.434
  H     -292.002     236.450     -52.617

 6  7  8  9  10  11  12  13  14  15  25  28  32  33  34  35 0
 6-311+G(2d,p)
 ****
 36  39  40 0
 6-311+G(2d,p)
 ****
 1  2  3  4  5  16  17  18  19  20  21  22  23  24 0
 3-21G
 ****
 26  27  29  30  31  37  38  41  42  43  44  45  46  47  48 0
 3-21G
 ****


