%nproc=1
%NoSave
%Mem=1900MB
#P OB98/GEN NMR

erre ene a

0 1
  C       -1.230      42.665      36.430
  O       -2.200      42.299      35.453
  P       -3.464      41.431      35.918
  C       -4.029      38.858      36.165
  O       -3.139      39.876      35.765
  C       -3.421      37.489      35.820
  O       -3.798      37.096      34.483
  C       -1.897      37.474      35.877
  O       -1.416      37.211      37.183
  C       -1.556      36.389      34.876
  O       -1.760      35.089      35.458
  C       -2.606      36.657      33.772
  N       -2.283      37.655      32.731
  C       -1.078      37.567      32.036
  O       -0.232      36.698      32.228
  N       -0.866      38.522      31.077
  C       -1.778      39.430      30.627
  O       -1.553      40.223      29.723
  C       -3.086      39.385      31.289
  C       -3.271      38.529      32.297
  O       -4.552      41.708      34.782
  O       -3.978      41.771      37.282
  H       -2.666      35.069      35.812
  H       -5.322      42.177      35.156
  H        0.030      38.516      30.614
  H       -3.856      40.056      30.932
  H       -4.237      38.488      32.794
  H       -2.861      35.728      33.248
  H       -0.509      36.431      34.588
  H       -1.495      38.419      35.498
  H       -3.826      36.745      36.518
  H       -4.997      38.971      35.672
  H       -4.211      38.931      37.242
  P       -0.857      38.410      38.084
  C        1.310      39.776      37.978
  O        0.336      39.068      37.236
  O       -0.533      38.070      39.499
  O       -2.008      39.523      37.982
  H       -2.616      39.466      38.754
  H        2.139      40.033      37.313
  H        1.690      39.160      38.797
  H        0.877      40.697      38.376
  H       -0.455      43.238      35.966
  H       -0.810      41.782      36.864
  H       -1.697      43.250      37.194

 3  4  5  6  7  8  9  10  11  12  13  23  28  29  30  31  32 0
 6-311+G(2d,p)
 ****
 33  34 0
 6-311+G(2d,p)
 ****
 1  2  14  15  16  17  18  19  20  21  22  24  25  26  27 0
 3-21G
 ****
 35  36  37  38  39  40  41  42  43  44  45 0
 3-21G
 ****


