%nproc=1
%NoSave
%Mem=1900MB
#P OB98/GEN NMR

erre ene a

0 1
  C     -120.765      30.440     373.546
  O     -119.691      30.419     374.482
  P     -119.765      29.786     375.944
  C     -117.508      28.461     375.713
  O     -118.285      29.420     376.423
  C     -116.145      28.242     376.395
  O     -115.328      29.433     376.193
  C     -116.271      28.032     377.910
  O     -115.426      27.005     378.419
  C     -116.074      29.429     378.466
  O     -115.709      29.453     379.837
  C     -115.052      30.017     377.489
  N     -112.501      34.409     378.014
  C     -112.105      33.123     378.333
  N     -110.880      32.981     378.887
  N     -112.857      32.071     378.151
  C     -114.085      32.354     377.672
  C     -114.597      33.586     377.329
  C     -113.740      34.743     377.484
  O     -114.030      35.899     377.199
  N     -115.882      33.484     376.861
  C     -116.161      32.201     376.941
  N     -115.093      31.470     377.420
  O     -120.816      28.746     376.158
  O     -120.137      31.046     376.887
  H     -116.425      29.031     380.345
  H     -120.677      30.686     377.623
  H     -111.868      35.181     378.151
  H     -117.102      31.742     376.657
  H     -114.028      29.759     377.763
  H     -117.031      29.965     378.384
  H     -110.306      33.762     379.163
  H     -117.281      27.685     378.172
  H     -110.692      32.080     379.319
  H     -115.641      27.395     375.913
  H     -117.359      28.870     374.709
  H     -118.052      27.521     375.613
  P     -115.809      25.508     378.825
  C     -113.997      24.515     377.294
  O     -114.518      24.580     378.610
  O     -116.800      25.007     377.673
  O     -116.453      25.367     380.163
  H     -117.673      24.788     378.064
  H     -113.311      23.668     377.227
  H     -113.451      25.431     377.074
  H     -114.803      24.380     376.569
  H     -120.445      30.923     372.647
  H     -121.592      30.975     373.964
  H     -121.065      29.437     373.325

 3  4  5  6  7  8  9  10  11  12  23  26  30  31 0
 6-311+G(2d,p)
 ****
 33  35  36  37  38 0
 6-311+G(2d,p)
 ****
 1  2  13  14  15  16  17  18  19  20  21  22  24  25 0
 3-21G
 ****
 27  28  29  32  34  39  40  41  42  43  44  45  46  47  48  49 0
 3-21G
 ****


