%nproc=1
%NoSave
%Mem=1900MB
#P OB98/GEN NMR

erre ene a

0 1
  C       51.358     209.799     638.457
  O       51.569     211.098     637.875
  P       50.937     212.422     638.516
  C       51.616     214.908     638.846
  O       51.898     213.674     638.180
  C       52.498     216.041     638.338
  O       53.825     215.973     638.913
  C       52.702     216.050     636.813
  O       51.560     216.598     636.167
  C       53.972     216.894     636.701
  O       53.658     218.292     636.768
  C       54.764     216.451     637.944
  N       59.319     215.512     635.779
  C       58.604     216.666     635.941
  N       57.407     216.833     636.521
  C       56.930     215.646     636.979
  C       57.542     214.403     636.910
  C       58.791     214.360     636.256
  N       59.510     213.190     636.085
  N       56.747     213.425     637.479
  C       55.679     214.078     637.926
  N       55.749     215.428     637.652
  O       50.597     212.310     639.978
  O       49.623     212.721     637.653
  H       53.331     218.483     637.663
  H       48.963     213.205     638.190
  H       59.081     217.562     635.552
  H       54.849     213.622     638.435
  H       55.293     217.303     638.397
  H       54.491     216.724     635.747
  H       52.910     215.028     636.465
  H       52.046     216.994     638.673
  H       51.791     214.754     639.935
  H       60.382     213.235     635.589
  H       59.108     212.310     636.391
  H       50.554     215.143     638.710
  P       50.472     215.613     635.500
  C       47.907     215.631     635.377
  O       49.094     216.414     635.432
  O       50.381     214.246     636.107
  O       50.931     215.546     633.955
  H       50.668     214.676     633.592
  H       47.755     215.266     634.349
  H       47.048     216.257     635.661
  H       47.970     214.777     636.061
  H       51.866     209.060     637.873
  H       50.310     209.582     638.474
  H       51.741     209.789     639.456

 3  4  5  6  7  8  9  10  11  12  22  25  29  30  31  32 0
 6-311+G(2d,p)
 ****
 33  36  37 0
 6-311+G(2d,p)
 ****
 1  2  13  14  15  16  17  18  19  20  21  23  24  26 0
 3-21G
 ****
 27  28  34  35  38  39  40  41  42  43  44  45  46  47  48 0
 3-21G
 ****


