%nproc=1
%NoSave
%Mem=1900MB
#P OB98/GEN NMR

erre ene a

0 1
  C       38.637     736.863    -299.125
  O       38.875     735.513    -298.752
  P       37.947     734.387    -299.418
  C       39.881     732.781    -300.137
  O       38.850     733.689    -300.550
  C       40.909     732.608    -301.247
  O       41.459     733.891    -301.619
  C       42.099     731.745    -300.848
  O       41.763     730.373    -300.869
  C       43.127     732.149    -301.905
  O       42.973     731.358    -303.094
  C       42.770     733.628    -302.182
  N       43.757     734.561    -301.643
  C       44.763     734.958    -302.529
  O       44.766     734.526    -303.688
  N       45.740     735.818    -302.080
  C       45.708     736.229    -300.850
  N       46.698     737.078    -300.461
  C       44.690     735.809    -299.876
  C       43.756     734.969    -300.322
  O       36.890     735.233    -300.254
  O       37.299     733.456    -298.444
  H       43.087     730.431    -302.810
  H       36.054     734.732    -300.373
  H       44.721     736.177    -298.853
  H       42.969     734.612    -299.682
  H       42.692     733.815    -303.262
  H       44.153     732.003    -301.558
  H       42.470     732.037    -299.850
  H       40.395     732.184    -302.128
  H       47.398     737.344    -301.154
  H       39.429     731.813    -299.913
  H       46.758     737.471    -299.532
  H       40.344     733.169    -299.225
  P       42.082     729.508    -299.570
  C       39.580     729.369    -299.025
  O       40.849     729.786    -298.574
  O       43.268     730.342    -298.883
  O       42.450     728.072    -299.782
  H       43.619     729.852    -298.117
  H       38.863     729.472    -298.205
  H       39.591     728.334    -299.345
  H       39.242     730.011    -299.845
  H       39.323     737.502    -298.609
  H       37.634     737.133    -298.866
  H       38.774     736.971    -300.181

 3  4  5  6  7  8  9  10  11  12  13  21  23  27  28  29  30  32 0
 6-311+G(2d,p)
 ****
 34  35 0
 6-311+G(2d,p)
 ****
 1  2  14  15  16  17  18  19  20  22  24  25  26 0
 3-21G
 ****
 31  33  36  37  38  39  40  41  42  43  44  45  46 0
 3-21G
 ****


