%nproc=1
%NoSave
%Mem=1900MB
#P OB98/GEN NMR

erre ene a

0 1
  C      -47.627     147.230     -50.722
  O      -46.218     147.143     -50.670
  H      -47.904     148.017     -51.427
  H      -48.019     147.490     -49.735
  H      -48.057     146.285     -51.058
  P      -45.597     145.981     -49.754
  C      -44.189     144.988     -51.692
  O      -44.180     145.597     -50.410
  C      -42.871     145.241     -52.420
  O      -42.879     146.599     -52.952
  C      -41.623     145.103     -51.534
  O      -40.567     144.561     -52.337
  C      -41.278     146.547     -51.209
  O      -39.915     146.710     -50.822
  C      -41.647     147.217     -52.531
  N      -39.211     151.589     -53.036
  C      -38.803     150.298     -53.308
  N      -37.551     150.145     -53.789
  N      -39.556     149.247     -53.124
  C      -40.796     149.550     -52.670
  C      -41.320     150.781     -52.358
  C      -40.465     151.936     -52.541
  O      -40.764     153.101     -52.300
  N      -42.609     150.667     -51.898
  C      -42.861     149.371     -51.935
  N      -41.792     148.653     -52.395
  O      -46.526     144.726     -50.102
  O      -45.567     146.267     -48.291
  H      -39.746     147.669     -50.714
  H      -47.257     144.660     -49.460
  H      -38.587     152.362     -53.183
  H      -43.790     148.905     -51.638
  H      -40.894     147.046     -53.310
  H      -41.912     146.913     -50.393
  H      -36.931     150.911     -54.000
  H      -41.768     144.484     -50.644
  H      -37.248     149.210     -54.036
  H      -42.814     144.566     -53.282
  H      -45.011     145.411     -52.280
  H      -44.352     143.911     -51.579
  P      -39.203     144.150     -51.607
  C      -39.219     141.597     -52.103
  O      -38.612     142.857     -52.347
  O      -39.712     143.555     -50.210
  O      -38.247     145.279     -51.410
  H      -39.024     143.674     -49.529
  H      -38.712     140.842     -52.667
  H      -40.247     141.633     -52.398
  H      -39.155     141.366     -51.060

 6  7  8  9  10  11  12  13  14  15  26  29  33  34 0
 6-311+G(2d,p)
 ****
 36  38  39  40  41 0
 6-311+G(2d,p)
 ****
 1  2  3  4  5  16  17  18  19  20  21  22  23  24  25 0
 3-21G
 ****
 27  28  30  31  32  35  37  42  43  44  45  46  47 0
 3-21G
 ****
 48  49 0
 3-21G
 ****


