%nproc=1
%NoSave
%Mem=1900MB
#P OB98/GEN NMR

erre ene a

0 1
  C       35.814      62.604    -158.029
  O       34.571      62.057    -158.424
  P       34.284      61.767    -159.972
  C       33.640      63.111    -162.070
  O       33.862      63.153    -160.661
  C       32.951      64.393    -162.535
  O       31.612      64.470    -161.996
  C       33.647      65.670    -162.084
  O       34.797      65.922    -162.868
  C       32.527      66.691    -162.253
  O       32.430      67.114    -163.624
  C       31.288      65.872    -161.855
  N       27.553      67.917    -159.040
  C       27.793      67.937    -160.370
  N       28.837      67.397    -161.040
  C       29.693      66.812    -160.186
  C       29.599      66.742    -158.807
  C       28.450      67.307    -158.224
  N       28.162      67.237    -156.879
  N       30.694      66.079    -158.280
  C       31.436      65.768    -159.327
  N       30.842      66.133    -160.501
  O       33.364      60.621    -160.247
  O       35.736      61.485    -160.585
  H       33.326      67.359    -163.919
  H       35.764      60.581    -160.956
  H       27.049      68.447    -160.975
  H       32.396      65.274    -159.285
  H       30.438      66.067    -162.521
  H       32.678      67.589    -161.645
  H       33.909      65.600    -161.017
  H       32.874      64.361    -163.632
  H       33.008      62.246    -162.292
  H       27.246      67.548    -156.591
  H       28.648      66.542    -156.316
  H       34.599      62.987    -162.583
  P       36.141      66.441    -162.164
  C       36.771      68.449    -160.698
  O       35.848      67.923    -161.633
  O       37.394      66.279    -162.962
  O       36.207      65.589    -160.806
  H       37.141      65.432    -160.563
  H       36.572      68.024    -159.710
  H       36.646      69.534    -160.650
  H       37.802      68.221    -160.992
  H       35.827      62.729    -156.966
  H       35.952      63.554    -158.501
  H       36.603      61.943    -158.320

 3  4  5  6  7  8  9  10  11  12  22  25  29  30  31  32 0
 6-311+G(2d,p)
 ****
 33  36  37 0
 6-311+G(2d,p)
 ****
 1  2  13  14  15  16  17  18  19  20  21  23  24  26 0
 3-21G
 ****
 27  28  34  35  38  39  40  41  42  43  44  45  46  47  48 0
 3-21G
 ****


