%nproc=1
%NoSave
%Mem=1900MB
#P OB98/GEN NMR

erre ene a

0 1
  C       56.204     145.935      -4.388
  O       54.935     146.109      -4.987
  H       56.535     144.908      -4.561
  H       56.142     146.110      -3.311
  H       56.928     146.618      -4.839
  P       54.252     147.550      -4.817
  C       53.707     148.963      -2.718
  O       53.954     147.667      -3.245
  C       53.448     148.889      -1.215
  O       54.545     148.237      -0.552
  C       53.283     150.244      -0.538
  O       51.954     150.713      -0.684
  C       53.589     149.883       0.908
  O       52.421     149.302       1.519
  C       54.691     148.819       0.768
  N       58.120     150.904       3.969
  C       56.791     150.702       4.088
  N       55.932     150.194       3.178
  C       56.577     149.868       2.045
  C       57.929     150.019       1.779
  C       58.719     150.560       2.806
  N       60.076     150.766       2.680
  N       58.231     149.579       0.507
  C       57.091     149.116       0.038
  N       56.052     149.300       0.915
  O       53.106     147.835      -5.727
  O       55.519     148.512      -4.999
  H       51.678     149.907       1.338
  H       56.297     148.142      -4.546
  H       56.356     150.990       5.040
  H       56.967     148.620      -0.919
  H       54.568     148.010       1.498
  H       53.863     150.753       1.508
  H       54.025     150.968      -0.893
  H       52.557     148.265      -1.058
  H       52.844     149.417      -3.219
  H       60.523     151.330       3.384
  H       60.491     150.629       1.770
  H       54.588     149.579      -2.922
  P       51.555     152.213      -0.275
  C       51.778     153.598       1.879
  O       51.832     152.298       1.302
  O       50.199     152.636      -0.721
  O       52.721     153.114      -0.894
  H       52.438     154.047      -0.929
  H       51.977     153.531       2.928
  H       50.805     154.016       1.727
  H       52.511     154.225       1.416

 6  7  8  9  10  11  12  13  14  15  25  28  32  33  34  35 0
 6-311+G(2d,p)
 ****
 36  39  40 0
 6-311+G(2d,p)
 ****
 1  2  3  4  5  16  17  18  19  20  21  22  23  24 0
 3-21G
 ****
 26  27  29  30  31  37  38  41  42  43  44  45  46  47 0
 3-21G
 ****
 48 0
 3-21G
 ****


