%nproc=1
%NoSave
%Mem=1900MB
#P OB98/GEN NMR

erre ene a

0 1
  C     -158.482     112.520       3.913
  O     -157.873     112.687       2.649
  H     -157.708     112.549       4.684
  H     -158.991     111.553       3.962
  H     -159.197     113.326       4.098
  P     -158.847     112.612       1.375
  C     -159.694     110.698      -0.155
  O     -159.074     111.051       1.073
  C     -159.163     109.358      -0.656
  O     -157.797     109.487      -1.108
  C     -159.178     108.246       0.387
  O     -160.454     107.636       0.459
  C     -158.108     107.313      -0.162
  O     -158.634     106.495      -1.229
  C     -157.063     108.301      -0.699
  N     -153.321     106.528       2.190
  C     -154.234     105.857       1.403
  N     -154.158     104.507       1.405
  N     -155.150     106.449       0.685
  C     -155.147     107.796       0.823
  C     -154.299     108.578       1.572
  C     -153.255     107.910       2.319
  O     -152.365     108.454       2.970
  N     -154.602     109.909       1.440
  C     -155.653     109.927       0.640
  N     -156.024     108.669       0.244
  O     -157.913     113.088       0.163
  O     -160.082     113.442       1.462
  H     -158.849     107.063      -1.990
  H     -158.449     113.626      -0.452
  H     -152.619     106.021       2.697
  H     -156.170     110.819       0.314
  H     -156.554     107.914      -1.588
  H     -157.746     106.624       0.602
  H     -153.687     103.998       2.139
  H     -158.862     108.622       1.368
  H     -154.875     104.014       0.885
  H     -159.763     109.074      -1.529
  H     -159.478     111.476      -0.896
  H     -160.776     110.636      -0.008
  P     -161.277     107.760       1.828
  C     -161.954     106.149       3.748
  O     -161.101     106.385       2.638
  O     -162.800     107.714       1.335
  O     -161.006     109.002       2.607
  H     -163.191     108.606       1.382
  H     -161.719     105.200       4.183
  H     -162.973     106.150       3.421
  H     -161.813     106.920       4.477

 6  7  8  9  10  11  12  13  14  15  26  29  33  34 0
 6-311+G(2d,p)
 ****
 36  38  39  40  41 0
 6-311+G(2d,p)
 ****
 1  2  3  4  5  16  17  18  19  20  21  22  23  24  25 0
 3-21G
 ****
 27  28  30  31  32  35  37  42  43  44  45  46  47 0
 3-21G
 ****
 48  49 0
 3-21G
 ****


