%nproc=1
%NoSave
%Mem=1900MB
#P OB98/GEN NMR

erre ene a

0 1
  C      -89.138     134.819     306.357
  O      -89.663     133.618     305.834
  H      -89.168     134.765     307.447
  H      -89.746     135.664     306.028
  H      -88.103     134.965     306.041
  P      -89.445     133.289     304.283
  C      -91.726     132.155     303.855
  O      -90.319     131.985     303.951
  C      -92.439     130.797     303.830
  O      -92.041     130.080     302.626
  C      -92.032     129.927     305.022
  O      -93.061     129.005     305.385
  C      -90.844     129.150     304.481
  O      -90.603     127.931     305.189
  C      -91.254     128.945     303.024
  N      -87.816     125.778     300.977
  C      -88.693     125.562     302.021
  N      -88.651     124.328     302.594
  N      -89.521     126.466     302.480
  C      -89.401     127.664     301.861
  C      -88.558     128.013     300.828
  C      -87.672     126.990     300.314
  O      -86.858     127.138     299.405
  N      -88.716     129.327     300.470
  C      -89.653     129.778     301.284
  N      -90.116     128.800     302.126
  O      -87.948     132.726     304.222
  O      -89.637     134.444     303.344
  H      -89.869     127.470     304.739
  H      -87.585     132.821     303.324
  H      -87.223     125.039     300.648
  H      -90.038     130.788     301.286
  H      -91.873     128.052     302.916
  H      -89.948     129.766     304.592
  H      -87.904     123.684     302.404
  H      -91.753     130.513     305.893
  H      -89.052     124.258     303.536
  H      -93.525     130.942     303.763
  H      -91.919     132.712     302.933
  H      -92.091     132.766     304.684
  P      -93.662     129.085     306.870
  C      -94.294     126.759     307.961
  O      -94.638     127.843     307.128
  O      -94.651     130.338     306.816
  O      -92.633     129.230     307.951
  H      -94.332     131.050     307.406
  H      -95.099     126.054     307.980
  H      -94.109     127.116     308.953
  H      -93.413     126.284     307.583

 6  7  8  9  10  11  12  13  14  15  26  29  33  34 0
 6-311+G(2d,p)
 ****
 36  38  39  40  41 0
 6-311+G(2d,p)
 ****
 1  2  3  4  5  16  17  18  19  20  21  22  23  24  25 0
 3-21G
 ****
 27  28  30  31  32  35  37  42  43  44  45  46  47 0
 3-21G
 ****
 48  49 0
 3-21G
 ****


