%nproc=1
%NoSave
%Mem=1900MB
#P OB98/GEN NMR

erre ene a

0 1
  C      -16.670     128.981      43.553
  O      -15.344     129.349      43.238
  P      -14.329     129.856      44.370
  C      -15.034     132.269      43.802
  O      -14.843     131.308      44.835
  C      -15.561     133.584      44.391
  O      -16.573     133.272      45.400
  C      -14.457     134.422      45.072
  O      -14.379     135.776      44.623
  C      -14.762     134.241      46.552
  O      -14.213     135.248      47.381
  C      -16.290     134.110      46.540
  N      -16.815     133.552      47.785
  C      -17.574     134.400      48.588
  O      -17.834     135.569      48.315
  N      -17.990     133.879      49.783
  C      -17.634     132.665      50.297
  O      -17.963     132.303      51.419
  C      -16.799     131.830      49.419
  C      -16.451     132.290      48.214
  O      -12.884     129.806      44.001
  O      -14.712     128.948      45.634
  H      -14.126     134.881      48.280
  H      -15.633     129.034      45.937
  H      -18.540     134.481      50.377
  H      -16.493     130.867      49.803
  H      -15.834     131.696      47.546
  H      -16.771     135.074      46.363
  H      -14.319     133.289      46.871
  H      -13.464     134.013      44.854
  H      -16.038     134.146      43.581
  H      -15.762     131.879      43.088
  H      -14.094     132.426      43.261
  P      -13.022     136.585      44.369
  C      -13.499     137.906      46.559
  O      -12.554     137.226      45.761
  O      -13.051     137.532      43.216
  O      -11.940     135.428      44.121
  H      -11.236     135.761      43.533
  H      -12.978     138.670      47.146
  H      -13.968     137.195      47.248
  H      -14.269     138.389      45.949
  H      -17.176     128.674      42.662
  H      -17.180     129.818      43.983
  H      -16.659     128.172      44.253

 3  4  5  6  7  8  9  10  11  12  13  23  28  29  30  31  32 0
 6-311+G(2d,p)
 ****
 33  34 0
 6-311+G(2d,p)
 ****
 1  2  14  15  16  17  18  19  20  21  22  24  25  26  27 0
 3-21G
 ****
 35  36  37  38  39  40  41  42  43  44  45 0
 3-21G
 ****


