%nproc=1
%NoSave
%Mem=1900MB
#P OB98/GEN NMR

erre ene a

0 1
  C      -13.090    -283.894     164.052
  O      -11.814    -283.398     163.697
  H      -13.006    -284.965     164.254
  H      -13.789    -283.744     163.226
  H      -13.458    -283.391     164.952
  P      -11.678    -281.806     163.533
  C      -12.851    -279.871     164.863
  O      -12.308    -281.178     164.866
  C      -12.314    -279.060     166.044
  O      -12.548    -279.806     167.265
  C      -10.815    -278.764     165.958
  O      -10.575    -277.469     166.509
  C      -10.198    -279.819     166.861
  O       -8.913    -279.431     167.339
  C      -11.283    -279.957     167.942
  N      -11.200    -281.233     168.652
  C      -10.103    -281.412     169.498
  O       -9.254    -280.525     169.610
  N       -9.965    -282.601     170.168
  C      -10.814    -283.556     169.960
  N      -10.610    -284.721     170.632
  C      -11.963    -283.430     169.041
  C      -12.099    -282.252     168.435
  O      -12.777    -281.498     162.411
  O      -10.303    -281.336     163.194
  H       -8.270    -279.500     166.598
  H      -13.619    -281.961     162.557
  H      -12.639    -284.262     168.891
  H      -12.920    -282.068     167.749
  H      -11.200    -279.148     168.677
  H      -10.082    -280.762     166.315
  H      -10.434    -278.808     164.933
  H      -12.894    -278.132     166.123
  H       -9.797    -284.773     171.234
  H      -13.944    -279.912     164.920
  H      -11.173    -285.549     170.506
  H      -12.579    -279.392     163.917
  P       -9.983    -276.311     165.579
  C      -10.926    -275.005     163.553
  O      -11.188    -275.555     164.840
  O       -8.846    -276.704     164.700
  O       -9.500    -275.211     166.649
  H       -8.646    -274.852     166.342
  H      -11.811    -274.533     163.180
  H      -10.629    -275.786     162.885
  H      -10.141    -274.282     163.627

 6  7  8  9  10  11  12  13  14  15  16  26  30  31  32  33  35 0
 6-311+G(2d,p)
 ****
 37  38 0
 6-311+G(2d,p)
 ****
 1  2  3  4  5  17  18  19  20  21  22  23  24  25 0
 3-21G
 ****
 27  28  29  34  36  39  40  41  42  43  44  45  46 0
 3-21G
 ****


