%nproc=1
%NoSave
%Mem=1900MB
#P OB98/GEN NMR

erre ene a

0 1
  C       63.363     342.075    -524.201
  O       63.339     340.946    -525.044
  H       63.974     341.842    -523.323
  H       62.350     342.317    -523.860
  H       63.800     342.933    -524.715
  P       62.475     340.988    -526.395
  C       64.103     339.338    -527.503
  O       62.752     339.579    -527.124
  C       64.273     337.927    -528.073
  O       64.084     336.952    -527.009
  C       63.280     337.592    -529.192
  O       63.967     336.986    -530.289
  C       62.347     336.566    -528.552
  O       61.709     335.717    -529.500
  C       63.314     335.879    -527.577
  N       62.608     335.103    -526.567
  C       62.313     333.776    -526.893
  O       62.651     333.321    -527.986
  N       61.601     333.019    -526.008
  C       61.172     333.548    -524.901
  N       60.441     332.754    -524.077
  C       61.438     334.952    -524.523
  C       62.159     335.665    -525.389
  O       62.705     342.193    -527.248
  O       60.954     340.844    -525.915
  H       61.026     336.238    -529.975
  H       60.360     341.205    -526.612
  H       61.057     335.350    -523.599
  H       62.400     336.707    -525.202
  H       63.999     335.210    -528.113
  H       61.566     337.093    -527.988
  H       62.725     338.457    -529.553
  H       65.308     337.817    -528.414
  H       60.277     331.799    -524.379
  H       64.744     339.478    -526.625
  H       60.036     333.059    -523.209
  H       64.378     340.068    -528.273
  P       64.409     337.976    -531.477
  C       66.790     336.929    -531.528
  O       65.625     337.285    -532.268
  O       65.095     339.199    -530.704
  O       63.269     338.429    -532.326
  H       64.530     339.993    -530.768
  H       67.507     336.483    -532.185
  H       66.526     336.231    -530.761
  H       67.211     337.806    -531.083

 6  7  8  9  10  11  12  13  14  15  16  26  30  31  32  33  35 0
 6-311+G(2d,p)
 ****
 37  38 0
 6-311+G(2d,p)
 ****
 1  2  3  4  5  17  18  19  20  21  22  23  24  25 0
 3-21G
 ****
 27  28  29  34  36  39  40  41  42  43  44  45  46 0
 3-21G
 ****


