%nproc=1
%NoSave
%Mem=1900MB
#P OB98/GEN NMR

erre ene a

0 1
  C       67.505     130.262     -57.467
  O       66.257     130.930     -57.483
  H       67.952     130.332     -58.462
  H       67.363     129.207     -57.218
  H       68.174     130.733     -56.743
  P       65.445     130.961     -56.098
  C       66.220     133.348     -55.463
  O       66.290     131.959     -55.169
  C       66.701     134.171     -54.269
  O       68.078     133.881     -53.975
  C       66.630     135.679     -54.478
  O       65.313     136.159     -54.259
  C       67.591     136.159     -53.401
  O       66.929     136.156     -52.121
  C       68.689     135.080     -53.425
  N       73.721     136.091     -53.266
  C       72.799     135.963     -52.287
  N       71.473     135.738     -52.403
  C       71.117     135.640     -53.695
  C       71.946     135.750     -54.803
  C       73.310     135.975     -54.551
  N       74.249     136.096     -55.553
  N       71.227     135.599     -55.970
  C       69.993     135.350     -55.572
  N       69.870     135.400     -54.206
  O       65.112     129.632     -55.514
  O       64.184     131.861     -56.505
  H       66.117     136.688     -52.208
  H       64.455     132.582     -57.100
  H       73.178     136.051     -51.272
  H       69.166     135.111     -56.228
  H       69.040     134.836     -52.416
  H       67.937     137.180     -53.577
  H       67.020     135.966     -55.461
  H       66.110     133.869     -53.394
  H       65.196     133.632     -55.723
  H       75.166     136.426     -55.294
  H       73.922     136.134     -56.508
  H       66.862     133.533     -56.331
  P       64.767     137.440     -55.056
  C       63.517     135.907     -56.697
  O       64.472     136.951     -56.557
  O       65.624     138.655     -54.957
  O       63.306     137.691     -54.461
  H       63.132     138.647     -54.383
  H       63.402     135.665     -57.733
  H       62.577     136.228     -56.299
  H       63.853     135.042     -56.164

 6  7  8  9  10  11  12  13  14  15  25  28  32  33  34  35 0
 6-311+G(2d,p)
 ****
 36  39  40 0
 6-311+G(2d,p)
 ****
 1  2  3  4  5  16  17  18  19  20  21  22  23  24 0
 3-21G
 ****
 26  27  29  30  31  37  38  41  42  43  44  45  46  47 0
 3-21G
 ****
 48 0
 3-21G
 ****


