%nproc=1
%NoSave
%Mem=1900MB
#P OB98/GEN NMR

erre ene a

0 1
  C     -890.220    -896.120    -892.660
  O     -890.330    -896.980    -893.780
  H     -890.630    -896.610    -891.770
  H     -889.170    -895.890    -892.490
  H     -890.770    -895.190    -892.850
  P     -891.810    -897.470    -894.170
  C     -891.800    -896.490    -896.590
  O     -892.320    -896.410    -895.270
  C     -892.960    -896.400    -897.590
  O     -894.000    -897.320    -897.230
  C     -893.600    -895.020    -897.650
  O     -892.880    -894.110    -898.470
  C     -894.940    -895.380    -898.260
  O     -894.810    -895.590    -899.670
  C     -895.270    -896.690    -897.540
  N     -899.000    -898.610    -894.580
  C     -898.420    -899.060    -895.720
  N     -897.420    -898.510    -896.430
  C     -897.000    -897.370    -895.870
  C     -897.500    -896.770    -894.710
  C     -898.550    -897.440    -894.060
  N     -899.160    -896.960    -892.920
  N     -896.840    -895.590    -894.450
  C     -895.960    -895.470    -895.420
  N     -896.050    -896.510    -896.320
  O     -892.690    -897.110    -892.890
  O     -891.940    -898.900    -894.600
  H     -895.680    -895.900    -900.000
  H     -893.550    -897.570    -892.930
  H     -898.810    -900.000    -896.100
  H     -895.240    -894.670    -895.530
  H     -895.840    -897.390    -898.180
  H     -895.690    -894.580    -898.130
  H     -893.760    -894.610    -896.640
  H     -892.580    -896.700    -898.580
  H     -891.290    -897.450    -896.710
  H     -900.000    -897.430    -892.610
  H     -898.940    -896.030    -892.600
  H     -891.090    -895.680    -896.750
  P     -892.720    -892.610    -897.930
  C     -890.110    -892.620    -897.900
  O     -891.320    -892.560    -897.130
  O     -893.800    -892.530    -896.760
  O     -892.920    -891.540    -898.970
  H     -894.170    -891.620    -896.690
  H     -889.267    -892.578    -897.243
  H     -890.077    -891.792    -898.577
  H     -890.085    -893.535    -898.454

 6  7  8  9  10  11  12  13  14  15  25  28  32  33  34  35 0
 6-311+G(2d,p)
 ****
 36  39  40 0
 6-311+G(2d,p)
 ****
 1  2  3  4  5  16  17  18  19  20  21  22  23  24 0
 3-21G
 ****
 26  27  29  30  31  37  38  41  42  43  44  45  46  47 0
 3-21G
 ****
 48 0
 3-21G
 ****


