%nproc=1
%NoSave
%Mem=1900MB
#P OB98/GEN NMR

erre ene a

0 1
  C      116.139     565.845     280.154
  O      116.019     564.959     279.044
  P      117.033     564.903     277.810
  C      117.422     562.307     277.829
  O      116.927     563.457     277.139
  C      116.688     561.015     277.438
  O      115.319     561.073     277.909
  C      116.627     560.873     275.916
  O      117.724     560.332     275.204
  C      115.299     560.159     275.653
  O      115.452     558.746     275.538
  C      114.463     560.516     276.881
  N      109.887     561.207     274.708
  C      110.684     560.078     274.712
  N      110.239     559.016     274.010
  N      111.828     560.018     275.338
  C      112.199     561.171     275.932
  C      111.501     562.357     275.969
  C      110.204     562.406     275.327
  O      109.450     563.373     275.295
  N      112.201     563.328     276.640
  C      113.330     562.745     276.974
  N      113.368     561.429     276.575
  O      118.398     565.436     278.081
  O      116.338     565.874     276.723
  H      114.565     558.346     275.529
  H      117.066     566.301     276.218
  H      109.004     561.194     274.229
  H      114.143     563.214     277.521
  H      114.001     559.619     277.319
  H      114.862     560.500     274.704
  H      109.428     559.044     273.413
  H      116.499     561.887     275.502
  H      110.920     558.276     273.835
  H      117.141     560.153     277.933
  H      117.299     562.510     278.899
  H      118.488     562.197     277.650
  P      117.947     560.391     273.623
  C      120.230     561.542     273.709
  O      119.521     560.379     273.341
  O      117.540     561.889     273.226
  O      117.157     559.395     272.829
  H      117.385     561.963     272.259
  H      121.199     561.550     273.207
  H      120.392     561.545     274.794
  H      119.682     562.444     273.424
  H      115.331     565.675     280.835
  H      116.107     566.857     279.808
  H      117.069     565.668     280.653

 3  4  5  6  7  8  9  10  11  12  23  26  30  31 0
 6-311+G(2d,p)
 ****
 33  35  36  37  38 0
 6-311+G(2d,p)
 ****
 1  2  13  14  15  16  17  18  19  20  21  22  24  25 0
 3-21G
 ****
 27  28  29  32  34  39  40  41  42  43  44  45  46  47  48  49 0
 3-21G
 ****


