%nproc=1
%NoSave
%Mem=1900MB
#P OB98/GEN NMR

erre ene a

0 1
  C      185.461     195.347    -209.778
  O      185.878     196.283    -208.797
  P      186.290     195.730    -207.352
  C      184.487     196.579    -205.682
  O      185.773     196.783    -206.254
  C      183.599     197.807    -205.891
  O      184.223     198.971    -205.284
  C      183.348     198.144    -207.368
  O      182.029     198.694    -207.513
  C      184.335     199.258    -207.647
  O      183.921     200.059    -208.753
  C      184.334     199.986    -206.300
  N      186.203     204.687    -206.322
  C      184.888     204.266    -206.305
  N      183.945     205.233    -206.393
  N      184.527     203.014    -206.202
  C      185.577     202.157    -206.134
  C      186.922     202.455    -206.126
  C      187.305     203.844    -206.252
  O      188.453     204.281    -206.300
  N      187.688     201.323    -206.003
  C      186.814     200.334    -205.978
  N      185.522     200.787    -206.091
  O      187.880     195.926    -207.333
  O      185.924     194.306    -207.097
  H      183.026     200.389    -208.547
  H      188.320     195.059    -207.449
  H      186.433     205.663    -206.414
  H      187.061     199.282    -205.907
  H      183.463     200.648    -206.204
  H      185.323     198.837    -207.872
  H      184.156     206.208    -206.542
  H      183.468     197.298    -208.053
  H      182.975     204.949    -206.426
  H      182.648     197.645    -205.366
  H      184.598     196.393    -204.613
  H      184.023     195.697    -206.135
  P      181.488     198.827    -209.019
  C      181.268     201.419    -208.868
  O      180.619     200.173    -209.058
  O      180.390     197.664    -209.122
  O      182.544     198.701    -210.066
  H      180.280     197.380    -210.047
  H      181.161     202.014    -209.776
  H      182.334     201.303    -208.637
  H      180.789     201.947    -208.035
  H      185.220     195.863    -210.684
  H      184.597     194.823    -209.426
  H      186.251     194.649    -209.964

 3  4  5  6  7  8  9  10  11  12  23  26  30  31 0
 6-311+G(2d,p)
 ****
 33  35  36  37  38 0
 6-311+G(2d,p)
 ****
 1  2  13  14  15  16  17  18  19  20  21  22  24  25 0
 3-21G
 ****
 27  28  29  32  34  39  40  41  42  43  44  45  46  47  48  49 0
 3-21G
 ****


