%nproc=1
%NoSave
%Mem=1900MB
#P OB98/GEN NMR

erre ene a

0 1
  C       21.022      48.048     -25.254
  O       19.686      47.588     -25.245
  H       21.365      48.114     -26.290
  H       21.668      47.351     -24.713
  H       21.082      49.039     -24.796
  P       19.033      47.323     -23.801
  C       20.293      45.046     -23.615
  O       19.046      45.722     -23.672
  C       20.059      43.550     -23.436
  O       21.312      42.833     -23.460
  C       19.401      43.176     -22.113
  O       18.002      43.402     -22.108
  C       19.735      41.697     -22.051
  O       18.876      40.970     -22.948
  C       21.195      41.699     -22.558
  N       22.179      41.796     -21.479
  C       22.060      40.871     -20.436
  O       21.160      40.034     -20.441
  N       22.948      40.937     -19.388
  C       23.879      41.840     -19.386
  N       24.721      41.868     -18.319
  C       24.050      42.821     -20.473
  C       23.177      42.745     -21.473
  O       17.481      47.642     -24.024
  O       19.654      48.053     -22.658
  H       18.999      40.024     -22.753
  H       16.968      47.387     -23.219
  H       24.835      43.562     -20.421
  H       23.240      43.437     -22.306
  H       21.407      40.795     -23.143
  H       19.599      41.268     -21.056
  H       19.882      43.679     -21.267
  H       19.465      43.197     -24.290
  H       24.541      41.223     -17.561
  H       20.863      45.444     -22.769
  H       25.354      42.639     -18.144
  H       20.856      45.218     -24.538
  P       17.349      43.996     -20.766
  C       16.874      41.695     -19.661
  O       16.331      42.888     -20.210
  O       16.378      45.142     -21.315
  O       18.330      44.523     -19.766
  H       16.387      45.923     -20.730
  H       16.078      41.058     -19.335
  H       17.500      41.938     -18.828
  H       17.452      41.190     -20.406

 6  7  8  9  10  11  12  13  14  15  16  26  30  31  32  33  35 0
 6-311+G(2d,p)
 ****
 37  38 0
 6-311+G(2d,p)
 ****
 1  2  3  4  5  17  18  19  20  21  22  23  24  25 0
 3-21G
 ****
 27  28  29  34  36  39  40  41  42  43  44  45  46 0
 3-21G
 ****


