%nproc=1
%NoSave
%Mem=1900MB
#P OB98/GEN NMR

erre ene a

0 1
  C      -50.227      -3.418     -35.060
  O      -50.814      -3.561     -33.764
  P      -49.959      -3.149     -32.472
  C      -50.236      -0.595     -32.260
  O      -50.649      -1.869     -31.785
  C      -51.450       0.316     -32.502
  O      -52.433      -0.355     -33.345
  C      -52.164       0.702     -31.199
  O      -52.719       2.025     -31.303
  C      -53.318      -0.279     -31.143
  O      -54.366       0.187     -30.293
  C      -53.681      -0.377     -32.622
  N      -58.262      -2.664     -32.393
  C      -57.860      -1.418     -32.053
  N      -56.629      -0.872     -32.164
  C      -55.766      -1.750     -32.704
  C      -56.032      -3.052     -33.108
  C      -57.348      -3.510     -32.930
  N      -57.748      -4.787     -33.249
  N      -54.895      -3.651     -33.610
  C      -53.948      -2.744     -33.463
  N      -54.432      -1.570     -32.952
  O      -48.485      -3.036     -32.678
  O      -50.303      -4.321     -31.429
  H      -54.757       0.974     -30.714
  H      -49.486      -4.582     -30.964
  H      -58.630      -0.776     -31.631
  H      -52.902      -2.892     -33.698
  H      -54.270       0.486     -32.954
  H      -52.967      -1.245     -30.756
  H      -51.536       0.655     -30.304
  H      -51.120       1.211     -33.045
  H      -49.669      -0.711     -33.186
  H      -58.682      -5.066     -32.977
  H      -57.049      -5.470     -33.508
  H      -49.542      -0.148     -31.538
  P      -51.658       3.240     -31.284
  C      -51.781       3.374     -33.893
  O      -51.884       4.038     -32.654
  O      -50.259       2.802     -30.996
  O      -52.275       4.197     -30.159
  H      -53.219       4.400     -30.270
  H      -52.094       4.056     -34.687
  H      -52.426       2.491     -33.921
  H      -50.741       3.077     -34.074
  H      -50.926      -3.735     -35.805
  H      -49.344      -4.020     -35.120
  H      -49.971      -2.392     -35.224

 3  4  5  6  7  8  9  10  11  12  22  25  29  30  31  32 0
 6-311+G(2d,p)
 ****
 33  36  37 0
 6-311+G(2d,p)
 ****
 1  2  13  14  15  16  17  18  19  20  21  23  24  26 0
 3-21G
 ****
 27  28  34  35  38  39  40  41  42  43  44  45  46  47  48 0
 3-21G
 ****


