%nproc=1
%NoSave
%Mem=1900MB
#P OB98/GEN NMR

erre ene a

0 1
  C     -133.979    -127.138      -0.319
  O     -134.613    -127.773       0.769
  P     -135.718    -128.910       0.542
  C     -133.926    -130.608       1.280
  O     -134.922    -130.289       0.315
  C     -133.831    -132.127       1.463
  O     -132.677    -132.424       2.311
  C     -135.080    -132.729       2.137
  O     -135.666    -133.820       1.427
  C     -134.583    -133.051       3.537
  O     -135.361    -134.019       4.214
  C     -133.116    -133.402       3.273
  N     -132.308    -133.388       4.490
  C     -132.247    -134.568       5.223
  O     -132.812    -135.611       4.911
  N     -131.547    -134.507       6.397
  C     -131.015    -133.385       6.955
  O     -130.486    -133.384       8.058
  C     -131.146    -132.159       6.153
  C     -131.754    -132.216       4.966
  O     -136.737    -128.610      -0.505
  O     -136.330    -129.118       2.007
  H     -134.804    -134.420       4.908
  H     -135.688    -129.394       2.683
  H     -131.495    -135.356       6.939
  H     -130.742    -131.251       6.574
  H     -131.866    -131.329       4.352
  H     -133.018    -134.383       2.806
  H     -134.636    -132.129       4.130
  H     -135.888    -131.990       2.199
  H     -133.661    -132.571       0.479
  H     -134.201    -130.150       2.233
  H     -132.964    -130.183       0.976
  P     -137.237    -134.041       1.214
  C     -137.309    -133.439      -1.314
  O     -137.711    -133.113       0.000
  O     -138.066    -133.937       2.450
  O     -137.326    -135.516       0.599
  H     -138.177    -135.923       0.848
  H     -137.259    -132.519      -1.903
  H     -138.051    -134.102      -1.764
  H     -136.328    -133.922      -1.327
  H     -133.280    -126.416       0.048
  H     -134.714    -126.649      -0.924
  H     -133.462    -127.868      -0.906

 3  4  5  6  7  8  9  10  11  12  13  23  28  29  30  31  32 0
 6-311+G(2d,p)
 ****
 33  34 0
 6-311+G(2d,p)
 ****
 1  2  14  15  16  17  18  19  20  21  22  24  25  26  27 0
 3-21G
 ****
 35  36  37  38  39  40  41  42  43  44  45 0
 3-21G
 ****


