%nproc=1
%NoSave
%Mem=1900MB
#P OB98/GEN NMR

erre ene a

0 1
  C       -1.696    -745.029      -4.148
  O       -2.048    -744.334      -2.958
  P       -1.941    -745.144      -1.572
  C       -4.279    -744.257      -0.868
  O       -3.451    -745.394      -1.099
  C       -5.701    -744.693      -0.526
  O       -6.372    -745.183      -1.707
  C       -5.793    -745.815       0.492
  O       -5.674    -745.343       1.819
  C       -7.201    -746.328       0.231
  O       -8.159    -745.464       0.866
  C       -7.311    -746.209      -1.290
  N       -9.327    -750.476      -3.260
  C       -9.877    -749.460      -2.567
  N       -9.271    -748.359      -2.068
  C       -7.949    -748.394      -2.315
  C       -7.244    -749.385      -2.974
  C       -7.986    -750.462      -3.479
  N       -7.423    -751.487      -4.213
  N       -5.904    -749.065      -3.031
  C       -5.806    -747.904      -2.421
  N       -7.014    -747.449      -1.979
  O       -1.418    -744.027      -0.550
  O       -1.050    -746.341      -1.604
  H       -7.966    -745.487       1.827
  H       -0.970    -744.452       0.202
  H      -10.950    -749.530      -2.399
  H       -4.884    -747.354      -2.289
  H       -8.310    -745.879      -1.610
  H       -7.373    -747.339       0.629
  H       -5.072    -746.613       0.268
  H       -6.253    -743.807      -0.178
  H       -4.301    -743.642      -1.773
  H       -8.051    -752.120      -4.688
  H       -6.474    -751.364      -4.539
  H       -3.854    -743.670      -0.054
  P       -5.180    -746.401       2.917
  C       -7.447    -746.284       4.194
  O       -6.515    -747.083       3.486
  O       -4.683    -745.474       4.128
  O       -4.111    -747.333       2.443
  H       -4.015    -745.938       4.661
  H       -8.407    -746.810       4.221
  H       -7.594    -745.324       3.691
  H       -7.094    -746.131       5.213
  H       -1.812    -744.378      -4.989
  H       -2.333    -745.880      -4.266
  H       -0.678    -745.352      -4.085

 3  4  5  6  7  8  9  10  11  12  22  25  29  30  31  32 0
 6-311+G(2d,p)
 ****
 33  36  37 0
 6-311+G(2d,p)
 ****
 1  2  13  14  15  16  17  18  19  20  21  23  24  26 0
 3-21G
 ****
 27  28  34  35  38  39  40  41  42  43  44  45  46  47  48 0
 3-21G
 ****


