%nproc=1
%NoSave
%Mem=1900MB
#P OB98/GEN NMR

erre ene a

0 1
  C      265.942    -549.890    -471.741
  O      265.892    -549.182    -472.967
  H      265.608    -549.225    -470.941
  H      266.963    -550.210    -471.519
  H      265.279    -550.755    -471.780
  P      266.484    -549.891    -474.276
  C      264.320    -550.962    -475.214
  O      265.281    -549.917    -475.335
  C      263.119    -550.680    -476.108
  O      262.226    -549.745    -475.472
  C      263.503    -550.045    -477.443
  O      264.042    -551.007    -478.321
  C      262.176    -549.445    -477.865
  O      261.312    -550.440    -478.434
  C      261.618    -548.945    -476.512
  N      261.865    -547.520    -476.293
  C      260.947    -546.642    -476.876
  O      259.993    -547.073    -477.521
  N      261.149    -545.290    -476.725
  C      262.161    -544.858    -476.044
  N      262.307    -543.510    -475.933
  C      263.148    -545.751    -475.405
  C      262.944    -547.058    -475.570
  O      267.162    -551.213    -474.082
  O      267.478    -548.791    -474.885
  H      261.838    -550.882    -479.131
  H      268.373    -548.901    -474.513
  H      263.977    -545.349    -474.839
  H      263.618    -547.783    -475.129
  H      260.535    -549.115    -476.450
  H      262.310    -548.661    -478.604
  H      264.211    -549.225    -477.284
  H      262.574    -551.618    -476.262
  H      261.611    -542.933    -476.395
  H      264.009    -550.995    -474.164
  H      263.007    -543.065    -475.358
  H      264.768    -551.932    -475.473
  P      264.666    -550.564    -479.736
  C      267.066    -551.296    -479.123
  O      265.932    -551.526    -479.966
  O      264.924    -549.105    -479.883
  O      263.592    -551.136    -480.790
  H      262.770    -550.584    -480.795
  H      267.840    -551.993    -479.368
  H      266.782    -551.424    -478.100
  H      267.424    -550.299    -479.271

 6  7  8  9  10  11  12  13  14  15  16  26  30  31  32  33  35 0
 6-311+G(2d,p)
 ****
 37  38 0
 6-311+G(2d,p)
 ****
 1  2  3  4  5  17  18  19  20  21  22  23  24  25 0
 3-21G
 ****
 27  28  29  34  36  39  40  41  42  43  44  45  46 0
 3-21G
 ****


