%nproc=1
%NoSave
%Mem=1900MB
#P OB98/GEN NMR

erre ene a

0 1
  C      163.868      62.074     -88.483
  O      163.465      62.521     -89.780
  P      162.204      63.514     -89.821
  C      162.743      65.993     -90.369
  O      162.542      64.681     -90.874
  C      163.602      66.827     -91.329
  O      164.725      66.044     -91.832
  C      162.828      67.345     -92.556
  O      163.371      68.636     -92.872
  C      163.208      66.326     -93.622
  O      162.928      66.767     -94.942
  C      164.680      66.124     -93.276
  N      166.836      64.258     -97.511
  C      166.343      65.479     -97.211
  N      165.780      65.898     -96.055
  C      165.758      64.901     -95.153
  C      166.221      63.602     -95.311
  C      166.786      63.287     -96.563
  N      167.271      62.040     -96.886
  N      166.001      62.860     -94.159
  C      165.351      63.684     -93.356
  N      165.258      64.943     -93.878
  O      162.262      64.252     -88.400
  O      160.902      62.820     -90.048
  H      163.171      66.066     -95.582
  H      161.631      63.842     -87.779
  H      166.409      66.219     -98.006
  H      164.931      63.421     -92.393
  H      165.298      66.977     -93.578
  H      162.641      65.402     -93.456
  H      161.752      67.438     -92.393
  H      164.019      67.678     -90.771
  H      163.239      65.949     -89.395
  H      167.652      61.909     -97.811
  H      167.238      61.288     -96.209
  H      161.768      66.465     -90.197
  P      162.434      69.929     -92.707
  C      164.349      70.494     -91.091
  O      163.364      71.013     -91.971
  O      161.485      69.454     -91.502
  O      161.696      70.369     -93.931
  H      162.013      69.105     -90.757
  H      164.958      71.322     -90.722
  H      164.991      69.782     -91.618
  H      163.866      70.006     -90.239
  H      164.711      61.422     -88.577
  H      163.060      61.547     -88.020
  H      164.135      62.918     -87.882

 3  4  5  6  7  8  9  10  11  12  22  25  29  30  31  32 0
 6-311+G(2d,p)
 ****
 33  36  37 0
 6-311+G(2d,p)
 ****
 1  2  13  14  15  16  17  18  19  20  21  23  24  26 0
 3-21G
 ****
 27  28  34  35  38  39  40  41  42  43  44  45  46  47  48 0
 3-21G
 ****


