%nproc=1
%NoSave
%Mem=1900MB
#P OB98/GEN NMR

erre ene a

0 1
  C      -96.117    -757.996     -24.540
  O      -96.523    -757.305     -25.707
  H      -95.051    -758.224     -24.619
  H      -96.678    -758.932     -24.457
  H      -96.284    -757.393     -23.640
  P      -97.886    -756.471     -25.676
  C     -100.422    -756.975     -25.686
  O      -99.106    -757.521     -25.653
  C     -101.471    -757.998     -25.245
  O     -101.325    -758.291     -23.844
  C     -102.898    -757.469     -25.427
  O     -103.447    -757.630     -26.720
  C     -103.669    -758.312     -24.407
  O     -104.053    -759.578     -24.969
  C     -102.640    -758.515     -23.285
  N     -104.058    -758.074     -18.398
  C     -104.051    -759.192     -19.200
  N     -104.545    -760.330     -18.647
  N     -103.629    -759.190     -20.441
  C     -103.248    -757.975     -20.878
  C     -103.218    -756.788     -20.182
  C     -103.644    -756.809     -18.798
  O     -103.675    -755.842     -18.034
  N     -102.776    -755.742     -20.964
  C     -102.617    -756.288     -22.152
  N     -102.859    -757.634     -22.149
  O      -97.985    -755.862     -27.155
  O      -97.952    -755.387     -24.640
  H     -103.241    -760.057     -25.224
  H      -98.512    -755.039     -27.139
  H     -104.369    -758.140     -17.438
  H     -102.286    -755.749     -23.044
  H     -102.655    -759.544     -22.909
  H     -104.587    -757.816     -24.086
  H     -104.994    -760.351     -17.747
  H     -102.961    -756.418     -25.122
  H     -104.806    -761.083     -19.281
  H     -101.316    -758.936     -25.791
  H     -100.606    -756.665     -26.713
  H     -100.475    -756.075     -25.055
  P     -104.659    -756.695     -27.195
  C     -107.250    -756.923     -27.136
  O     -106.004    -757.337     -26.618
  O     -104.727    -756.991     -28.777
  O     -104.473    -755.242     -26.915
  H     -104.247    -756.312     -29.269
  H     -108.036    -757.452     -26.639
  H     -107.287    -757.132     -28.185
  H     -107.371    -755.872     -26.977

 6  7  8  9  10  11  12  13  14  15  26  29  33  34 0
 6-311+G(2d,p)
 ****
 36  38  39  40  41 0
 6-311+G(2d,p)
 ****
 1  2  3  4  5  16  17  18  19  20  21  22  23  24  25 0
 3-21G
 ****
 27  28  30  31  32  35  37  42  43  44  45  46  47 0
 3-21G
 ****
 48  49 0
 3-21G
 ****


