%nproc=1
%NoSave
%Mem=1900MB
#P OB98/GEN NMR

erre ene a

0 1
  C      -36.449       6.673      85.290
  O      -36.999       7.391      86.376
  H      -37.252       6.124      84.791
  H      -35.700       5.957      85.636
  H      -36.001       7.363      84.570
  P      -36.008       8.158      87.376
  C      -36.149      10.729      87.303
  O      -36.740       9.528      87.780
  C      -37.099      11.914      87.491
  O      -38.152      11.822      86.495
  C      -37.753      11.963      88.876
  O      -37.861      13.333      89.275
  C      -39.124      11.374      88.614
  O      -40.065      11.793      89.585
  C      -39.417      11.842      87.186
  N      -40.407      10.979      86.539
  C      -41.749      11.339      86.706
  O      -42.049      12.345      87.355
  N      -42.723      10.523      86.191
  C      -42.394       9.412      85.610
  N      -43.410       8.631      85.159
  C      -40.992       8.978      85.436
  C      -40.059       9.803      85.918
  O      -34.598       8.317      86.911
  O      -36.088       7.292      88.723
  H      -40.926      11.353      89.416
  H      -35.398       6.603      88.717
  H      -40.768       8.041      84.951
  H      -39.004       9.560      85.845
  H      -39.790      12.874      87.180
  H      -39.068      10.278      88.653
  H      -37.200      11.396      89.630
  H      -36.546      12.840      87.283
  H      -44.356       8.956      85.322
  H      -35.931      10.598      86.238
  H      -43.279       7.726      84.728
  H      -35.209      10.915      87.832
  P      -36.976      13.905      90.486
  C      -34.612      14.452      89.666
  O      -35.919      14.968      89.903
  O      -36.381      12.861      91.373
  O      -38.002      14.823      91.310
  H      -37.748      14.825      92.253
  H      -33.986      15.230      89.281
  H      -34.667      13.654      88.955
  H      -34.202      14.085      90.583

 6  7  8  9  10  11  12  13  14  15  16  26  30  31  32  33  35 0
 6-311+G(2d,p)
 ****
 37  38 0
 6-311+G(2d,p)
 ****
 1  2  3  4  5  17  18  19  20  21  22  23  24  25 0
 3-21G
 ****
 27  28  29  34  36  39  40  41  42  43  44  45  46 0
 3-21G
 ****


