%nproc=1
%NoSave
%Mem=1900MB
#P OB98/GEN NMR

erre ene a

0 1
  C      -65.903     418.754     -86.334
  O      -66.413     419.973     -85.827
  P      -67.203     419.924     -84.427
  C      -69.656     419.407     -83.753
  O      -68.638     419.282     -84.735
  C      -70.830     418.467     -84.040
  O      -70.342     417.111     -84.132
  C      -71.936     418.502     -82.983
  O      -73.195     418.364     -83.649
  C      -71.679     417.254     -82.160
  O      -72.856     416.796     -81.503
  C      -71.124     416.301     -83.234
  N      -70.331     415.215     -82.657
  C      -71.032     414.169     -82.056
  O      -72.253     414.225     -81.959
  N      -70.325     413.119     -81.526
  C      -69.026     413.159     -81.512
  N      -68.374     412.083     -80.984
  C      -68.245     414.303     -82.023
  C      -68.960     415.281     -82.596
  O      -67.534     421.465     -84.149
  O      -66.434     419.299     -83.303
  H      -72.670     415.908     -81.127
  H      -67.544     421.652     -83.193
  H      -67.172     414.309     -81.950
  H      -68.472     416.152     -83.022
  H      -71.945     415.855     -83.810
  H      -70.914     417.462     -81.397
  H      -71.932     419.426     -82.391
  H      -71.240     418.735     -85.025
  H      -68.927     411.326     -80.626
  H      -70.032     420.431     -83.749
  H      -67.363     412.036     -80.925
  H      -69.233     419.199     -82.761
  P      -74.237     419.574     -83.546
  C      -75.861     420.400     -81.733
  O      -74.918     419.410     -82.100
  O      -75.403     419.076     -84.522
  O      -73.770     420.946     -83.924
  H      -76.096     419.765     -84.589
  H      -76.345     420.093     -80.798
  H      -76.618     420.514     -82.504
  H      -75.347     421.354     -81.565
  H      -65.405     418.935     -87.264
  H      -66.709     418.067     -86.489
  H      -65.210     418.338     -85.633

 3  4  5  6  7  8  9  10  11  12  13  21  23  27  28  29  30  32 0
 6-311+G(2d,p)
 ****
 34  35 0
 6-311+G(2d,p)
 ****
 1  2  14  15  16  17  18  19  20  22  24  25  26 0
 3-21G
 ****
 31  33  36  37  38  39  40  41  42  43  44  45  46 0
 3-21G
 ****


