%nproc=1
%NoSave
%Mem=1900MB
#P OB98/GEN NMR

erre ene a

0 1
  C     -222.063    -930.494    -300.338
  O     -222.225    -930.446    -301.735
  P     -223.506    -931.138    -302.436
  C     -225.282    -929.288    -302.126
  O     -224.370    -929.935    -303.031
  C     -225.313    -927.787    -302.365
  O     -224.056    -927.177    -302.057
  C     -225.607    -927.398    -303.816
  O     -226.983    -927.552    -304.121
  C     -225.100    -925.951    -303.845
  O     -226.098    -925.065    -303.324
  C     -223.879    -926.019    -302.881
  N     -222.630    -926.063    -303.618
  C     -222.410    -925.009    -304.534
  O     -223.302    -924.155    -304.701
  N     -221.270    -924.987    -305.273
  C     -220.378    -925.936    -305.130
  N     -219.264    -925.870    -305.886
  C     -220.563    -927.089    -304.193
  C     -221.699    -927.078    -303.490
  O     -224.227    -932.115    -301.582
  O     -222.861    -931.797    -303.773
  H     -225.703    -924.159    -303.333
  H     -222.331    -932.616    -303.534
  H     -219.827    -927.852    -304.123
  H     -221.930    -927.859    -302.780
  H     -223.889    -925.149    -302.214
  H     -224.855    -925.622    -304.851
  H     -224.996    -928.015    -304.485
  H     -226.081    -927.351    -301.705
  H     -219.178    -925.095    -306.526
  H     -224.929    -929.478    -301.105
  H     -218.527    -926.584    -305.863
  H     -226.276    -929.741    -302.232
  P     -227.476    -927.541    -305.638
  C     -227.668    -930.116    -305.650
  O     -228.335    -928.903    -305.880
  O     -226.413    -927.256    -306.661
  O     -228.601    -926.400    -305.651
  H     -228.461    -925.833    -306.458
  H     -228.419    -930.899    -305.528
  H     -227.042    -930.043    -304.757
  H     -227.044    -930.345    -306.509
  H     -221.162    -929.985    -300.066
  H     -222.006    -931.514    -300.020
  H     -222.898    -930.020    -299.866

 3  4  5  6  7  8  9  10  11  12  13  23  27  28  29  30  32 0
 6-311+G(2d,p)
 ****
 34  35 0
 6-311+G(2d,p)
 ****
 1  2  14  15  16  17  18  19  20  21  22  24  25  26 0
 3-21G
 ****
 31  33  36  37  38  39  40  41  42  43  44  45  46 0
 3-21G
 ****


