%nproc=1
%NoSave
%Mem=1900MB
#P OB98/GEN NMR

erre ene a

0 1
  C      -22.441     298.485    -247.150
  O      -23.745     298.392    -246.604
  P      -24.155     297.160    -245.671
  C      -26.361     298.212    -244.913
  O      -25.759     297.122    -245.596
  C      -27.864     298.283    -245.192
  O      -28.072     298.643    -246.588
  C      -28.624     296.973    -244.940
  O      -29.927     297.335    -244.470
  C      -28.733     296.374    -246.334
  O      -29.777     295.416    -246.444
  C      -28.944     297.644    -247.156
  N      -30.853     296.649    -251.796
  C      -31.434     296.716    -250.579
  N      -30.856     296.960    -249.387
  C      -29.532     297.150    -249.532
  C      -28.792     297.082    -250.702
  C      -29.512     296.837    -251.886
  N      -28.940     296.799    -253.137
  N      -27.449     297.279    -250.434
  C      -27.387     297.461    -249.131
  N      -28.625     297.452    -248.555
  O      -23.469     297.106    -244.345
  O      -23.804     295.874    -246.554
  H      -29.867     295.163    -247.379
  H      -22.997     295.444    -246.207
  H      -32.509     296.557    -250.560
  H      -26.475     297.596    -248.561
  H      -29.973     298.010    -247.091
  H      -27.790     295.880    -246.596
  H      -28.129     296.301    -244.232
  H      -28.288     299.093    -244.586
  H      -25.889     299.135    -245.266
  H      -29.565     296.747    -253.927
  H      -28.010     297.194    -253.265
  H      -26.183     298.124    -243.834
  P      -30.595     296.519    -243.260
  C      -32.407     298.274    -242.830
  O      -32.139     296.942    -243.227
  O      -29.875     296.607    -241.957
  O      -30.643     295.011    -243.808
  H      -30.769     294.396    -243.061
  H      -32.369     298.345    -241.740
  H      -33.409     298.551    -243.172
  H      -31.680     298.967    -243.262
  H      -22.364     299.374    -247.741
  H      -22.250     297.630    -247.765
  H      -21.724     298.521    -246.357

 3  4  5  6  7  8  9  10  11  12  22  25  29  30  31  32 0
 6-311+G(2d,p)
 ****
 33  36  37 0
 6-311+G(2d,p)
 ****
 1  2  13  14  15  16  17  18  19  20  21  23  24  26 0
 3-21G
 ****
 27  28  34  35  38  39  40  41  42  43  44  45  46  47  48 0
 3-21G
 ****


