%nproc=1
%NoSave
%Mem=1900MB
#P OB98/GEN NMR

erre ene a

0 1
  C       85.814     -80.199     290.653
  O       86.059     -80.109     292.039
  H       86.685     -79.813     290.117
  H       84.943     -79.596     290.385
  H       85.652     -81.239     290.361
  P       84.909     -80.650     293.023
  C       86.251     -81.387     295.129
  O       85.471     -80.375     294.506
  C       87.732     -81.205     294.788
  O       88.113     -79.831     295.040
  C       88.658     -82.104     295.610
  O       89.664     -82.651     294.757
  C       89.271     -81.168     296.635
  O       90.544     -81.622     297.090
  C       89.279     -79.832     295.883
  N       89.275     -78.693     296.798
  C       90.517     -78.258     297.270
  O       91.549     -78.837     296.922
  N       90.561     -77.217     298.161
  C       89.456     -76.695     298.595
  N       89.565     -75.682     299.495
  C       88.122     -77.154     298.163
  C       88.105     -78.141     297.269
  O       85.021     -82.237     292.866
  O       83.544     -80.108     292.765
  H       90.873     -80.982     297.758
  H       84.235     -82.694     293.252
  H       87.229     -76.698     298.564
  H       87.170     -78.544     296.896
  H       90.164     -79.758     295.235
  H       88.610     -81.101     297.507
  H       88.130     -82.922     296.099
  H       87.865     -81.374     293.713
  H       90.496     -75.402     299.777
  H       85.910     -82.365     294.775
  H       88.772     -75.223     299.921
  H       86.115     -81.330     296.213
  P       89.288     -84.025     294.016
  C       90.545     -83.927     291.750
  O       90.530     -84.425     293.079
  O       88.149     -83.590     292.980
  O       88.832     -85.100     294.947
  H       87.266     -83.805     293.335
  H       91.425     -84.273     291.249
  H       90.543     -82.857     291.770
  H       89.678     -84.276     291.229

 6  7  8  9  10  11  12  13  14  15  16  26  30  31  32  33  35 0
 6-311+G(2d,p)
 ****
 37  38 0
 6-311+G(2d,p)
 ****
 1  2  3  4  5  17  18  19  20  21  22  23  24  25 0
 3-21G
 ****
 27  28  29  34  36  39  40  41  42  43  44  45  46 0
 3-21G
 ****


