%nproc=1
%NoSave
%Mem=1900MB
#P OB98/GEN NMR

erre ene a

0 1
  C      230.689      99.143      82.461
  O      231.417      97.969      82.862
  P      231.151      96.583      82.091
  C      230.596      95.367      84.341
  O      231.337      95.375      83.129
  C      230.940      94.119      85.160
  O      232.362      94.064      85.426
  C      230.279      94.067      86.531
  O      228.914      93.694      86.446
  C      231.146      93.033      87.244
  O      230.728      91.695      86.912
  C      232.541      93.329      86.657
  N      233.401      94.052      87.591
  C      233.898      93.323      88.667
  O      233.598      92.151      88.880
  N      234.729      94.002      89.514
  C      235.050      95.328      89.436
  O      235.788      95.886      90.241
  C      234.431      96.066      88.322
  C      233.644      95.408      87.470
  O      232.469      96.447      81.185
  O      229.922      96.538      81.243
  H      229.812      91.602      87.240
  H      232.264      95.933      80.383
  H      235.124      93.484      90.283
  H      234.642      97.125      88.240
  H      233.179      95.940      86.644
  H      233.040      92.394      86.378
  H      231.094      93.124      88.332
  H      230.387      95.033      87.035
  H      230.672      93.236      84.568
  H      229.526      95.359      84.111
  H      230.827      96.277      84.906
  P      227.922      94.346      87.529
  C      226.432      92.206      87.753
  O      226.537      93.559      87.359
  O      227.663      95.785      86.879
  O      228.497      94.376      88.907
  H      227.668      95.755      85.907
  H      227.063      91.990      88.619
  H      226.726      91.562      86.921
  H      225.391      91.994      88.015
  H      230.983      99.971      83.071
  H      229.640      98.969      82.578
  H      230.902      99.362      81.436

 3  4  5  6  7  8  9  10  11  12  13  23  28  29  30  31  32 0
 6-311+G(2d,p)
 ****
 33  34 0
 6-311+G(2d,p)
 ****
 1  2  14  15  16  17  18  19  20  21  22  24  25  26 0
 3-21G
 ****
 27  35  36  37  38  39  40  41  42  43  44  45 0
 3-21G
 ****


