%nproc=1
%NoSave
%Mem=1900MB
#P OB98/GEN NMR

erre ene a

0 1
  C     -136.064      89.533      46.987
  O     -135.071      90.523      46.654
  P     -135.223      91.344      45.277
  C     -134.453      89.512      43.583
  O     -135.505      90.341      44.057
  C     -134.622      89.199      42.081
  O     -133.446      88.480      41.590
  C     -135.849      88.342      41.748
  O     -136.311      88.758      40.450
  C     -135.265      86.940      41.674
  O     -136.077      86.029      40.957
  C     -133.917      87.248      41.001
  N     -132.918      86.185      41.153
  C     -131.925      86.082      40.180
  O     -131.865      86.784      39.171
  N     -130.987      85.104      40.390
  C     -130.965      84.213      41.426
  O     -130.112      83.338      41.540
  C     -132.053      84.352      42.404
  C     -132.966      85.310      42.226
  O     -133.713      91.802      45.003
  O     -136.124      92.534      45.338
  H     -135.744      85.128      41.134
  H     -133.698      92.747      44.746
  H     -130.248      85.028      39.708
  H     -132.071      83.668      43.241
  H     -133.769      85.441      42.944
  H     -134.078      87.441      39.931
  H     -135.136      86.546      42.690
  H     -136.653      88.437      42.490
  H     -134.655      90.153      41.539
  H     -134.449      88.573      44.148
  H     -133.494      90.021      43.754
  P     -137.837      89.227      40.298
  C     -138.795      86.958      39.416
  O     -138.760      87.926      40.446
  O     -137.885      89.543      38.724
  O     -138.210      90.410      41.143
  H     -137.468      88.844      38.193
  H     -137.794      86.774      39.009
  H     -139.461      87.293      38.618
  H     -139.178      86.017      39.827
  H     -135.818      89.083      47.926
  H     -136.087      88.781      46.226
  H     -137.024      90.000      47.056

 3  4  5  6  7  8  9  10  11  12  13  23  28  29  30  31  32 0
 6-311+G(2d,p)
 ****
 33  34 0
 6-311+G(2d,p)
 ****
 1  2  14  15  16  17  18  19  20  21  22  24  25  26 0
 3-21G
 ****
 27  35  36  37  38  39  40  41  42  43  44  45 0
 3-21G
 ****


