%nproc=1
%NoSave
%Mem=1900MB
#P OB98/GEN NMR

erre ene a

0 1
  C     -892.770    1109.261    -890.100
  O     -894.100    1109.012    -889.690
  H     -892.090    1108.793    -889.380
  H     -892.570    1110.344    -890.110
  H     -892.570    1108.845    -891.090
  P     -895.260    1109.626    -890.620
  C     -896.450    1107.359    -891.030
  O     -895.750    1108.439    -891.610
  C     -897.110    1106.488    -892.110
  O     -898.110    1107.322    -892.810
  C     -896.120    1105.990    -893.170
  O     -896.500    1104.655    -893.560
  C     -896.350    1106.927    -894.360
  O     -895.940    1106.325    -895.580
  C     -897.850    1107.158    -894.230
  N     -899.650    1108.823    -898.650
  C     -899.380    1107.545    -898.220
  N     -899.630    1106.512    -899.090
  N     -898.910    1107.252    -897.020
  C     -898.740    1108.365    -896.250
  C     -898.950    1109.670    -896.540
  C     -899.440    1109.966    -897.890
  O     -899.700    1111.104    -898.360
  N     -898.640    1110.512    -895.520
  C     -898.210    1109.700    -894.540
  N     -898.260    1108.384    -894.970
  O     -894.470    1110.619    -891.610
  O     -896.370    1110.328    -889.880
  H     -896.080    1107.005    -896.290
  H     -895.030    1111.372    -891.880
  H     -899.980    1108.969    -899.570
  H     -897.850    1109.978    -893.550
  H     -898.450    1106.331    -894.610
  H     -895.770    1107.870    -894.200
  H     -900.000    1106.650    -900.000
  H     -895.070    1105.987    -892.830
  H     -899.430    1105.570    -898.770
  H     -897.650    1105.660    -891.670
  H     -897.230    1107.775    -890.350
  H     -895.770    1106.730    -890.430
  P     -895.630    1103.431    -892.990
  C     -897.190    1102.707    -891.030
  O     -895.940    1103.275    -891.430
  O     -894.130    1104.000    -893.040
  O     -895.750    1102.177    -893.810
  H     -893.630    1103.548    -893.750
  H     -897.241    1102.673    -889.962
  H     -897.273    1101.715    -891.423
  H     -897.991    1103.308    -891.406

 6  7  8  9  10  11  12  13  14  15  26  29  33  34 0
 6-311+G(2d,p)
 ****
 36  38  39  40  41 0
 6-311+G(2d,p)
 ****
 1  2  3  4  5  16  17  18  19  20  21  22  23  24  25 0
 3-21G
 ****
 27  28  30  31  32  35  37  42  43  44  45  46  47 0
 3-21G
 ****
 48  49 0
 3-21G
 ****


