%nproc=1
%NoSave
%Mem=1900MB
#P OB98/GEN NMR

erre ene a

0 1
  C      827.916    -906.588    -790.665
  O      827.301    -907.155    -789.526
  H      828.995    -906.687    -790.558
  H      827.664    -905.529    -790.716
  H      827.603    -907.090    -791.582
  P      825.737    -907.475    -789.591
  C      824.741    -905.228    -788.743
  O      824.969    -906.075    -789.865
  C      823.782    -904.098    -789.103
  O      822.511    -904.645    -789.531
  C      823.508    -903.223    -787.852
  O      823.182    -901.872    -788.207
  C      822.255    -903.880    -787.266
  O      821.513    -903.010    -786.414
  C      821.522    -904.306    -788.518
  N      816.765    -905.873    -787.505
  C      817.266    -904.598    -787.508
  N      816.420    -903.589    -787.167
  N      818.533    -904.309    -787.802
  C      819.290    -905.411    -788.041
  C      818.902    -906.737    -788.034
  C      817.501    -907.025    -787.759
  O      816.998    -908.144    -787.715
  N      819.956    -907.583    -788.312
  C      820.971    -906.765    -788.453
  N      820.614    -905.434    -788.325
  O      825.338    -907.769    -788.054
  O      825.311    -908.609    -790.487
  H      820.710    -903.465    -786.161
  H      824.548    -908.327    -788.012
  H      815.795    -906.032    -787.277
  H      821.995    -907.091    -788.691
  H      820.924    -903.481    -788.920
  H      822.585    -904.732    -786.644
  H      815.507    -903.778    -786.781
  H      824.329    -903.219    -787.169
  H      816.836    -902.715    -786.875
  H      824.165    -903.513    -789.946
  H      825.718    -904.813    -788.447
  H      824.360    -905.811    -787.903
  P      823.817    -900.710    -787.296
  C      821.807    -900.110    -785.686
  O      823.064    -900.754    -785.871
  O      823.260    -899.376    -787.991
  O      825.303    -900.740    -787.224
  H      823.968    -898.924    -788.479
  H      821.477    -900.255    -784.678
  H      821.089    -900.529    -786.360
  H      821.911    -899.063    -785.881

 6  7  8  9  10  11  12  13  14  15  26  29  33  34 0
 6-311+G(2d,p)
 ****
 36  38  39  40  41 0
 6-311+G(2d,p)
 ****
 1  2  3  4  5  16  17  18  19  20  21  22  23  24  25 0
 3-21G
 ****
 27  28  30  31  32  35  37  42  43  44  45  46  47 0
 3-21G
 ****
 48  49 0
 3-21G
 ****


