%nproc=1
%NoSave
%Mem=1900MB
#P OB98/GEN NMR

erre ene a

0 1
  C       79.081     489.476     479.881
  O       79.758     488.364     480.488
  P       80.379     488.589     481.951
  C       82.927     489.003     481.596
  O       81.650     489.569     481.824
  C       84.025     490.042     481.851
  O       83.893     491.161     480.957
  C       83.958     490.652     483.241
  O       84.505     489.755     484.209
  C       84.755     491.942     483.067
  O       86.162     491.732     483.345
  C       84.527     492.296     481.578
  N       83.747     493.501     481.403
  C       84.403     494.699     481.685
  O       85.578     494.692     482.086
  N       83.723     495.874     481.542
  C       82.472     495.855     481.174
  N       81.830     497.053     481.041
  C       81.731     494.611     480.888
  C       82.421     493.476     481.017
  O       81.042     487.168     482.280
  O       79.371     488.985     482.983
  H       86.499     491.208     482.586
  H       80.991     486.988     483.242
  H       80.689     494.639     480.582
  H       81.958     492.511     480.828
  H       85.496     492.425     481.076
  H       84.411     492.711     483.760
  H       82.917     490.884     483.503
  H       85.010     489.565     481.694
  H       82.372     497.897     481.263
  H       83.002     488.622     480.569
  H       80.857     497.149     480.762
  H       83.056     488.133     482.253
  P       83.522     489.160     485.322
  C       83.959     491.381     486.518
  O       82.985     490.431     486.129
  O       84.570     488.520     486.364
  O       82.498     488.169     484.873
  H       84.085     488.024     487.056
  H       83.449     492.290     486.869
  H       84.594     491.658     485.683
  H       84.564     490.985     487.345
  H       78.719     489.190     478.916
  H       79.762     490.295     479.778
  H       78.258     489.772     480.497

 3  4  5  6  7  8  9  10  11  12  13  21  23  27  28  29  30  32 0
 6-311+G(2d,p)
 ****
 34  35 0
 6-311+G(2d,p)
 ****
 1  2  14  15  16  17  18  19  20  22  24  25  26 0
 3-21G
 ****
 31  33  36  37  38  39  40  41  42  43  44  45  46 0
 3-21G
 ****


