%nproc=1
%NoSave
%Mem=1900MB
#P OB98/GEN NMR

erre ene a

0 1
  C     -148.726      83.865    -373.711
  O     -149.195      83.959    -375.039
  H     -148.221      84.800    -373.452
  H     -148.009      83.045    -373.620
  H     -149.554      83.712    -373.015
  P     -150.121      82.784    -375.616
  C     -151.599      83.928    -377.389
  O     -151.510      83.454    -376.051
  C     -152.698      84.983    -377.494
  O     -152.399      86.097    -376.622
  C     -152.844      85.585    -378.887
  O     -153.494      84.694    -379.772
  C     -153.610      86.857    -378.568
  O     -155.014      86.597    -378.436
  C     -153.002      87.272    -377.211
  N     -152.024      88.352    -377.356
  C     -152.543      89.639    -377.454
  O     -153.747      89.894    -377.414
  N     -151.627      90.634    -377.663
  C     -150.297      90.449    -377.917
  O     -149.565      91.337    -378.341
  C     -149.799      89.079    -377.739
  C     -150.674      88.105    -377.482
  O     -150.242      81.574    -374.750
  O     -149.440      82.429    -377.024
  H     -148.916      81.611    -376.928
  H     -155.422      87.455    -378.195
  H     -151.998      91.567    -377.778
  H     -148.734      88.903    -377.860
  H     -150.332      87.077    -377.378
  H     -153.789      87.603    -376.524
  H     -153.483      87.606    -379.352
  H     -151.857      85.853    -379.278
  H     -153.643      84.533    -377.161
  H     -151.840      83.084    -378.045
  H     -150.631      84.346    -377.684
  P     -152.649      83.871    -380.856
  C     -154.105      81.761    -380.676
  O     -152.798      82.308    -380.529
  O     -151.245      84.338    -381.056
  O     -153.497      84.027    -382.207
  H     -152.896      84.317    -382.923
  H     -154.085      80.719    -380.433
  H     -154.432      81.885    -381.687
  H     -154.780      82.268    -380.018

 6  7  8  9  10  11  12  13  14  15  16  27  31  32  33  34  35 0
 6-311+G(2d,p)
 ****
 36  37 0
 6-311+G(2d,p)
 ****
 1  2  3  4  5  17  18  19  20  21  22  23  24  25 0
 3-21G
 ****
 26  28  29  30  38  39  40  41  42  43  44  45 0
 3-21G
 ****


