%nproc=1
%NoSave
%Mem=1900MB
#P OB98/GEN NMR

erre ene a

0 1
  C     -219.450    -140.536     522.904
  O     -220.132    -141.311     523.864
  H     -218.530    -141.058     522.630
  H     -219.180    -139.563     523.320
  H     -220.064    -140.409     522.008
  P     -221.507    -140.764     524.487
  C     -222.084    -141.535     526.872
  O     -222.003    -141.912     525.501
  C     -222.096    -142.766     527.785
  O     -223.166    -143.655     527.376
  C     -220.786    -143.572     527.744
  O     -220.369    -143.880     529.077
  C     -221.178    -144.857     527.024
  O     -220.332    -145.954     527.344
  C     -222.641    -144.995     527.455
  N     -223.375    -145.928     526.615
  C     -223.883    -147.068     527.259
  O     -223.700    -147.228     528.465
  N     -224.524    -148.019     526.511
  C     -224.619    -147.870     525.222
  N     -225.248    -148.859     524.538
  C     -224.071    -146.703     524.508
  C     -223.475    -145.778     525.253
  O     -222.514    -140.327     523.478
  O     -221.066    -139.585     525.483
  H     -220.686    -146.759     526.911
  H     -221.836    -138.985     525.622
  H     -224.170    -146.625     523.429
  H     -223.045    -144.878     524.813
  H     -222.713    -145.327     528.497
  H     -221.125    -144.688     525.943
  H     -219.977    -143.048     527.234
  H     -222.328    -142.438     528.805
  H     -225.594    -149.642     525.070
  H     -222.995    -140.941     527.011
  H     -225.357    -148.868     523.532
  H     -221.204    -140.922     527.105
  P     -218.905    -143.374     529.497
  C     -217.907    -145.142     531.116
  O     -218.597    -143.912     530.980
  O     -219.102    -141.799     529.690
  O     -217.860    -143.674     528.476
  H     -218.645    -141.314     528.972
  H     -217.777    -145.365     532.154
  H     -216.949    -145.068     530.645
  H     -218.473    -145.922     530.651

 6  7  8  9  10  11  12  13  14  15  16  26  30  31  32  33  35 0
 6-311+G(2d,p)
 ****
 37  38 0
 6-311+G(2d,p)
 ****
 1  2  3  4  5  17  18  19  20  21  22  23  24  25 0
 3-21G
 ****
 27  28  29  34  36  39  40  41  42  43  44  45  46 0
 3-21G
 ****


