%nproc=1
%NoSave
%Mem=1900MB
#P OB98/GEN NMR

erre ene a

0 1
  C     -435.067    -250.376    -167.865
  O     -434.049    -250.170    -168.824
  H     -435.637    -251.265    -168.143
  H     -435.745    -249.518    -167.843
  H     -434.630    -250.531    -166.874
  P     -433.110    -248.887    -168.602
  C     -433.142    -247.878    -170.994
  O     -433.609    -247.781    -169.655
  C     -433.635    -246.694    -171.820
  O     -435.084    -246.675    -171.867
  C     -433.199    -245.333    -171.295
  O     -431.887    -245.012    -171.722
  C     -434.259    -244.422    -171.907
  O     -433.956    -244.110    -173.282
  C     -435.522    -245.292    -171.811
  N     -438.145    -241.860    -169.198
  C     -437.525    -241.760    -170.429
  N     -437.573    -240.548    -171.030
  N     -436.912    -242.753    -171.014
  C     -436.920    -243.892    -170.279
  C     -437.510    -244.120    -169.057
  C     -438.215    -243.020    -168.435
  O     -438.838    -243.058    -167.376
  N     -437.321    -245.412    -168.641
  C     -436.580    -245.956    -169.592
  N     -436.299    -245.066    -170.600
  O     -431.697    -249.348    -169.205
  O     -432.980    -248.423    -167.193
  H     -433.140    -243.578    -173.315
  H     -430.981    -248.899    -168.718
  H     -438.619    -241.061    -168.805
  H     -436.230    -246.974    -169.601
  H     -436.198    -245.127    -172.656
  H     -434.326    -243.469    -171.378
  H     -437.718    -239.702    -170.499
  H     -433.278    -245.296    -170.200
  H     -437.102    -240.466    -171.922
  H     -433.281    -246.837    -172.852
  H     -433.516    -248.808    -171.437
  H     -432.046    -247.901    -170.991
  P     -431.179    -243.725    -171.074
  C     -430.441    -242.858    -173.414
  O     -431.157    -242.595    -172.213
  O     -429.644    -244.161    -170.963
  O     -431.744    -243.305    -169.756
  H     -429.176    -243.578    -170.343
  H     -430.521    -242.015    -174.068
  H     -430.853    -243.722    -173.893
  H     -429.411    -243.035    -173.184

 6  7  8  9  10  11  12  13  14  15  26  29  33  34 0
 6-311+G(2d,p)
 ****
 36  38  39  40  41 0
 6-311+G(2d,p)
 ****
 1  2  3  4  5  16  17  18  19  20  21  22  23  24  25 0
 3-21G
 ****
 27  28  30  31  32  35  37  42  43  44  45  46  47 0
 3-21G
 ****
 48  49 0
 3-21G
 ****


