%nproc=1
%NoSave
%Mem=1900MB
#P OB98/GEN NMR

erre ene a

0 1
  C      104.234    -522.592    -328.873
  O      103.695    -523.726    -328.215
  H      105.203    -522.863    -329.303
  H      104.390    -521.772    -328.167
  H      103.568    -522.268    -329.677
  P      102.345    -523.541    -327.365
  C      101.667    -521.856    -325.521
  O      102.729    -522.557    -326.163
  C      101.917    -521.787    -324.017
  O      103.305    -521.508    -323.753
  C      101.134    -520.680    -323.334
  O       99.776    -521.035    -323.178
  C      101.918    -520.528    -322.045
  O      101.565    -521.542    -321.097
  C      103.372    -520.724    -322.542
  N      104.062    -519.457    -322.780
  C      104.999    -519.083    -321.806
  O      105.206    -519.806    -320.827
  N      105.657    -517.888    -321.962
  C      105.422    -517.149    -323.003
  N      106.101    -515.972    -323.092
  C      104.450    -517.513    -324.051
  C      103.814    -518.668    -323.874
  O      101.636    -524.789    -326.943
  O      101.435    -522.618    -328.307
  H      102.229    -521.482    -320.381
  H      100.896    -523.172    -328.904
  H      104.288    -516.868    -324.898
  H      103.083    -519.014    -324.606
  H      103.956    -521.306    -321.818
  H      101.739    -519.561    -321.573
  H      101.227    -519.745    -323.899
  H      101.679    -522.768    -323.579
  H      106.756    -515.759    -322.343
  H      100.743    -522.414    -325.727
  H      106.071    -515.362    -323.894
  H      101.566    -520.848    -325.935
  P       98.665    -519.917    -322.875
  C       98.154    -518.348    -320.894
  O       98.970    -519.417    -321.381
  O       97.256    -520.323    -323.140
  O       99.139    -518.680    -323.774
  H       98.956    -518.833    -324.730
  H       98.447    -518.102    -319.895
  H       97.128    -518.651    -320.900
  H       98.276    -517.491    -321.523

 6  7  8  9  10  11  12  13  14  15  16  26  30  31  32  33  35 0
 6-311+G(2d,p)
 ****
 37  38 0
 6-311+G(2d,p)
 ****
 1  2  3  4  5  17  18  19  20  21  22  23  24  25 0
 3-21G
 ****
 27  28  29  34  36  39  40  41  42  43  44  45  46 0
 3-21G
 ****


