%nproc=1
%NoSave
%Mem=1900MB
#P OB98/GEN NMR

erre ene a

0 1
  C     -410.160    -648.907     157.195
  O     -408.804    -648.457     157.190
  P     -408.342    -647.506     158.400
  C     -406.359    -648.810     159.468
  O     -407.716    -648.421     159.562
  C     -406.253    -650.277     159.006
  O     -406.766    -650.448     157.680
  C     -404.820    -650.780     158.955
  O     -404.350    -651.095     160.259
  C     -404.950    -652.002     158.038
  O     -405.243    -653.203     158.790
  C     -406.145    -651.618     157.129
  N     -405.757    -651.417     155.745
  C     -405.714    -652.561     154.935
  O     -405.981    -653.663     155.431
  N     -405.351    -652.425     153.628
  C     -405.039    -651.260     153.154
  N     -404.675    -651.190     151.847
  C     -405.037    -650.033     153.975
  C     -405.402    -650.173     155.260
  O     -409.736    -647.013     159.036
  O     -407.491    -646.352     157.985
  H     -405.209    -653.931     158.129
  H     -409.639    -646.114     159.400
  H     -404.753    -649.083     153.555
  H     -405.421    -649.318     155.935
  H     -406.903    -652.415     157.151
  H     -404.025    -652.183     157.479
  H     -404.172    -650.034     158.485
  H     -406.844    -650.896     159.701
  H     -404.683    -652.053     151.311
  H     -405.851    -648.684     160.432
  H     -404.406    -650.334     151.393
  H     -405.858    -648.143     158.761
  P     -403.220    -650.153     160.887
  C     -404.523    -649.498     162.994
  O     -404.007    -649.062     161.751
  O     -402.754    -649.284     159.610
  O     -402.058    -650.829     161.548
  H     -401.987    -648.738     159.841
  H     -404.846    -648.632     163.570
  H     -403.752    -650.022     163.571
  H     -405.379    -650.162     162.836
  H     -410.333    -649.527     156.341
  H     -410.816    -648.062     157.161
  H     -410.346    -649.468     158.087

 3  4  5  6  7  8  9  10  11  12  13  21  23  27  28  29  30  32 0
 6-311+G(2d,p)
 ****
 34  35 0
 6-311+G(2d,p)
 ****
 1  2  14  15  16  17  18  19  20  22  24  25  26 0
 3-21G
 ****
 31  33  36  37  38  39  40  41  42  43  44  45  46 0
 3-21G
 ****


