%nproc=1
%NoSave
%Mem=1900MB
#P OB98/GEN NMR

erre ene a

0 1
  C      276.656     982.943    -899.060
  O      275.540     982.457    -898.320
  H      276.480     984.011    -899.280
  H      276.737     982.405    -900.000
  H      277.569     982.856    -898.480
  P      275.637     980.931    -897.810
  C      275.296     981.593    -895.310
  O      274.791     980.866    -896.440
  C      274.186     981.900    -894.310
  O      273.385     983.019    -894.800
  C      273.193     980.712    -894.090
  O      272.793     980.748    -892.710
  C      272.004     981.105    -894.950
  O      270.809     980.435    -894.550
  C      271.998     982.630    -894.760
  N      267.326     983.207    -896.510
  C      267.775     982.483    -895.410
  N      266.872     981.811    -894.670
  N      269.040     982.441    -895.070
  C      269.861     983.176    -895.880
  C      269.492     983.921    -897.010
  C      268.106     983.958    -897.370
  O      267.619     984.564    -898.320
  N      270.603     984.514    -897.560
  C      271.621     984.107    -896.790
  N      271.205     983.299    -895.780
  O      277.164     980.815    -897.330
  O      275.284     979.880    -898.840
  H      270.120     980.602    -895.240
  H      277.714     980.463    -898.060
  H      266.329     983.210    -896.710
  H      272.671     984.383    -896.970
  H      271.578     982.914    -893.790
  H      272.191     980.834    -896.010
  H      265.878     981.862    -894.830
  H      273.607     979.737    -894.330
  H      267.194     981.322    -893.850
  H      274.640     982.219    -893.370
  H      275.730     982.550    -895.680
  H      276.094     980.995    -894.840
  P      272.018     979.471    -892.120
  C      273.942     978.556    -890.600
  O      272.648     979.118    -890.680
  O      272.601     978.279    -893.030
  O      270.508     979.530    -892.200
  H      271.948     977.551    -893.100
  H      274.195     978.389    -889.574
  H      274.650     979.228    -891.037
  H      273.960     977.626    -891.128

 6  7  8  9  10  11  12  13  14  15  26  29  33  34 0
 6-311+G(2d,p)
 ****
 36  38  39  40  41 0
 6-311+G(2d,p)
 ****
 1  2  3  4  5  16  17  18  19  20  21  22  23  24  25 0
 3-21G
 ****
 27  28  30  31  32  35  37  42  43  44  45  46  47 0
 3-21G
 ****
 48  49 0
 3-21G
 ****


