%nproc=1
%NoSave
%Mem=1900MB
#P OB98/GEN NMR

erre ene a

0 1
  C      793.741    -246.107    -970.671
  O      794.140    -245.893    -969.319
  P      793.045    -245.563    -968.185
  C      794.390    -246.645    -966.292
  O      793.165    -246.664    -967.008
  C      794.273    -247.199    -964.856
  O      793.341    -246.416    -964.088
  C      793.810    -248.658    -964.776
  O      794.474    -249.213    -963.635
  C      792.327    -248.527    -964.522
  O      791.744    -249.702    -963.995
  C      792.303    -247.295    -963.608
  N      790.993    -246.636    -963.592
  C      790.075    -247.074    -962.645
  O      790.354    -248.013    -961.896
  N      788.840    -246.474    -962.589
  C      788.525    -245.572    -963.474
  N      787.279    -245.028    -963.386
  C      789.438    -245.147    -964.552
  C      790.636    -245.707    -964.543
  O      791.661    -245.354    -968.698
  O      793.604    -244.229    -967.492
  H      792.132    -250.477    -964.447
  H      792.844    -243.703    -967.168
  H      789.125    -244.414    -965.282
  H      791.389    -245.443    -965.283
  H      792.548    -247.583    -962.579
  H      791.818    -248.295    -965.477
  H      794.042    -249.244    -965.673
  H      795.253    -247.089    -964.394
  H      786.677    -245.380    -962.648
  H      794.754    -245.611    -966.249
  H      786.892    -244.419    -964.084
  H      795.139    -247.223    -966.849
  P      795.962    -249.800    -963.710
  C      796.807    -248.019    -962.079
  O      796.961    -248.594    -963.359
  O      796.285    -250.537    -964.971
  O      796.097    -250.761    -962.432
  H      796.839    -251.374    -962.553
  H      797.668    -247.380    -961.878
  H      796.761    -248.795    -961.302
  H      795.892    -247.430    -962.046
  H      794.604    -246.311    -971.270
  H      793.250    -245.231    -971.041
  H      793.070    -246.939    -970.717

 3  4  5  6  7  8  9  10  11  12  13  23  27  28  29  30  32 0
 6-311+G(2d,p)
 ****
 34  35 0
 6-311+G(2d,p)
 ****
 1  2  14  15  16  17  18  19  20  21  22  24  25  26 0
 3-21G
 ****
 31  33  36  37  38  39  40  41  42  43  44  45  46 0
 3-21G
 ****


