%nproc=1
%NoSave
%Mem=1900MB
#P OB98/GEN NMR

erre ene a

0 1
  C       33.021     387.204     436.590
  O       31.896     386.345     436.650
  P       30.519     386.956     437.205
  C       29.924     387.855     434.842
  O       30.108     388.153     436.220
  C       28.917     388.817     434.208
  O       28.785     388.489     432.796
  C       27.509     388.768     434.822
  O       26.988     390.101     434.768
  C       26.772     387.850     433.862
  O       25.360     387.921     433.961
  C       27.375     388.304     432.537
  N       24.311     386.948     428.675
  C       24.280     388.001     429.521
  N       25.134     388.300     430.519
  C       26.112     387.383     430.598
  C       26.267     386.249     429.818
  C       25.308     386.043     428.814
  N       25.338     384.958     427.956
  N       27.376     385.527     430.212
  C       27.886     386.217     431.213
  N       27.166     387.353     431.471
  O       30.975     387.716     438.537
  O       29.443     385.949     437.473
  H       25.042     388.760     433.578
  H       30.310     387.613     439.244
  H       23.456     388.699     429.375
  H       28.752     385.928     431.792
  H       26.967     389.269     432.210
  H       27.057     386.812     434.078
  H       27.501     388.425     435.861
  H       29.322     389.836     434.270
  H       29.537     386.837     434.739
  H       24.504     384.796     427.411
  H       25.953     384.192     428.203
  H       30.889     387.903     434.328
  P       25.822     390.522     435.785
  C       27.498     391.602     437.406
  O       26.554     390.566     437.214
  O       24.996     389.148     435.889
  O       25.007     391.705     435.393
  H       25.582     388.393     436.085
  H       27.844     391.572     438.442
  H       27.046     392.576     437.210
  H       28.356     391.446     436.744
  H       33.861     386.665     436.203
  H       33.249     387.563     437.572
  H       32.803     388.033     435.949

 3  4  5  6  7  8  9  10  11  12  22  25  29  30  31  32 0
 6-311+G(2d,p)
 ****
 33  36  37 0
 6-311+G(2d,p)
 ****
 1  2  13  14  15  16  17  18  19  20  21  23  24  26 0
 3-21G
 ****
 27  28  34  35  38  39  40  41  42  43  44  45  46  47  48 0
 3-21G
 ****


