%nproc=1
%NoSave
%Mem=1900MB
#P OB98/GEN NMR

erre ene a

0 1
  C     -898.520     412.061    -908.681
  O     -898.830     410.684    -908.586
  P     -898.510     409.694    -909.806
  C     -896.070     409.197    -909.173
  O     -897.380     408.664    -909.292
  C     -895.080     408.063    -908.869
  O     -895.310     407.512    -907.536
  C     -895.210     406.862    -909.792
  O     -894.870     407.054    -911.149
  C     -894.422     405.815    -909.022
  O     -893.026     405.960    -909.237
  C     -894.800     406.167    -907.559
  N     -895.740     405.202    -907.011
  C     -895.720     405.043    -905.634
  O     -894.960     405.620    -904.883
  N     -896.610     404.105    -905.122
  C     -897.440     403.326    -905.875
  O     -898.180     402.485    -905.354
  C     -897.430     403.550    -907.318
  C     -896.600     404.459    -907.827
  O     -898.180     410.379    -911.098
  O     -899.820     408.763    -909.867
  H     -892.835     405.640    -910.136
  H     -900.000     408.259    -909.052
  H     -896.590     403.946    -904.138
  H     -898.110     402.963    -907.924
  H     -896.570     404.648    -908.890
  H     -893.897     406.164    -906.935
  H     -894.691     404.796    -909.348
  H     -896.260     406.548    -909.788
  H     -894.071     408.491    -908.868
  H     -896.050     409.925    -908.363
  H     -895.810     409.718    -910.093
  P     -895.440     406.141    -912.343
  C     -897.420     407.765    -912.759
  O     -896.310     407.062    -913.316
  O     -896.000     404.805    -911.962
  O     -894.104     405.922    -913.231
  H     -894.150     405.024    -913.646
  H     -897.940     408.290    -913.574
  H     -897.080     408.484    -912.019
  H     -898.140     407.071    -912.312
  H     -898.805     412.554    -907.775
  H     -899.053     412.491    -909.504
  H     -897.468     412.180    -908.836

 3  4  5  6  7  8  9  10  11  12  13  23  28  29  30  31  32 0
 6-311+G(2d,p)
 ****
 33  34 0
 6-311+G(2d,p)
 ****
 1  2  14  15  16  17  18  19  20  21  22  24  25  26  27 0
 3-21G
 ****
 35  36  37  38  39  40  41  42  43  44  45 0
 3-21G
 ****


