%nproc=1
%NoSave
%Mem=1900MB
#P OB98/GEN NMR

erre ene a

0 1
  C      113.583     498.449     305.883
  O      112.330     498.088     305.301
  P      111.971     498.738     303.874
  C      111.651     496.674     302.322
  O      112.498     497.733     302.729
  C      112.134     495.339     302.886
  O      112.009     495.298     304.311
  C      111.359     494.135     302.383
  O      111.779     493.731     301.090
  C      111.748     493.082     303.415
  O      113.021     492.507     303.081
  C      111.863     493.912     304.710
  N      109.476     491.080     308.173
  C      110.671     490.853     307.514
  N      111.336     489.725     307.843
  N      111.168     491.666     306.609
  C      110.406     492.765     306.401
  C      109.203     493.101     307.000
  C      108.652     492.181     307.973
  O      107.583     492.317     308.562
  N      108.744     494.305     306.538
  C      109.673     494.712     305.690
  N      110.701     493.810     305.568
  O      112.999     499.969     303.779
  O      110.554     499.184     303.750
  H      113.294     491.946     303.844
  H      112.629     500.676     303.212
  H      109.141     490.418     308.849
  H      109.653     495.661     305.157
  H      112.743     493.646     305.291
  H      111.024     492.251     303.479
  H      111.052     489.098     308.581
  H      110.282     494.312     302.421
  H      112.237     489.567     307.394
  H      113.207     495.227     302.628
  H      111.629     496.623     301.221
  H      110.625     496.893     302.647
  P      110.637     493.556     299.967
  C      111.688     495.136     298.190
  O      110.647     494.929     299.133
  O      109.279     493.639     300.818
  O      110.729     492.304     299.168
  H      108.578     493.126     300.371
  H      111.886     494.240     297.603
  H      112.605     495.443     298.716
  H      111.394     495.935     297.508
  H      113.696     497.951     306.823
  H      113.614     499.508     306.034
  H      114.377     498.159     305.228

 3  4  5  6  7  8  9  10  11  12  23  26  30  31  33  0
 6-311+G(2d,p)
 ****
 35  36  37  38 0
 6-311+G(2d,p)
 ****
 1  2  13  14  15  16  17  18  19  20  21  22  24  25  27  28  29 0
 3-21G
 ****
 32  34  39  40  41  42  43  44  45  46  47  48  49 0
 3-21G
 ****


