%nproc=1
%NoSave
%Mem=1900MB
#P OB98/GEN NMR

erre ene a

0 1
  C      127.192     317.329     210.440
  O      128.366     316.919     211.111
  P      128.368     316.377     212.617
  C      129.931     314.299     212.671
  O      128.599     314.785     212.574
  C      130.173     313.042     211.811
  O      130.385     313.430     210.437
  C      131.451     312.334     212.264
  O      131.427     311.439     213.359
  C      132.066     311.759     210.985
  O      131.746     310.376     210.804
  C      131.421     312.606     209.879
  N      135.084     312.824     206.371
  C      134.169     311.814     206.606
  N      134.370     310.648     205.958
  N      133.151     311.942     207.430
  C      133.129     313.120     208.087
  C      133.972     314.204     207.924
  C      135.067     314.065     206.982
  O      135.952     314.899     206.806
  N      133.690     315.214     208.809
  C      132.703     314.735     209.535
  N      132.355     313.458     209.163
  O      127.321     316.932     213.536
  O      129.803     316.909     213.139
  H      132.192     309.875     211.514
  H      129.705     317.127     214.085
  H      135.890     312.637     205.782
  H      132.234     315.253     210.366
  H      130.939     311.961     209.138
  H      133.156     311.836     211.013
  H      135.218     310.469     205.427
  H      132.155     313.117     212.581
  H      133.819     309.842     206.226
  H      129.284     312.390     211.805
  H      130.130     314.087     213.724
  H      130.628     315.083     212.353
  P      132.490     311.368     214.558
  C      130.500     311.451     216.166
  O      131.798     311.955     215.880
  O      133.569     312.493     214.194
  O      133.162     310.047     214.728
  H      134.413     312.310     214.645
  H      130.015     312.116     216.892
  H      130.579     310.452     216.608
  H      129.888     311.401     215.258
  H      127.441     317.649     209.450
  H      126.740     318.139     210.974
  H      126.506     316.509     210.388

 3  4  5  6  7  8  9  10  11  12  23  26  30  31 0
 6-311+G(2d,p)
 ****
 33  35  36  37  38 0
 6-311+G(2d,p)
 ****
 1  2  13  14  15  16  17  18  19  20  21  22  24  25 0
 3-21G
 ****
 27  28  29  32  34  39  40  41  42  43  44  45  46  47  48  49 0
 3-21G
 ****


