%nproc=1
%NoSave
%Mem=1900MB
#P OB98/GEN NMR

erre ene a

0 1
  C      227.221     -16.293      15.615
  O      226.519     -17.389      15.066
  H      226.531     -15.701      16.220
  H      227.616     -15.660      14.815
  H      228.040     -16.636      16.254
  P      227.344     -18.530      14.300
  C      226.931     -17.376      12.031
  O      227.898     -17.873      12.947
  C      227.609     -16.978      10.723
  O      228.521     -15.883      10.948
  C      228.442     -18.089      10.093
  O      227.613     -19.049       9.467
  C      229.318     -17.283       9.146
  O      228.605     -16.954       7.944
  C      229.595     -16.014       9.989
  N      230.895     -16.040      10.656
  C      231.980     -15.577       9.918
  O      231.886     -15.198       8.752
  N      233.188     -15.580      10.566
  C      233.424     -16.070      11.818
  O      234.538     -16.099      12.333
  C      232.247     -16.578      12.537
  C      231.057     -16.539      11.935
  O      226.636     -19.833      14.120
  O      228.667     -18.697      15.186
  H      228.559     -17.775       7.415
  H      228.582     -19.481      15.760
  H      233.988     -15.261      10.043
  H      232.397     -16.979      13.531
  H      230.178     -16.915      12.447
  H      229.557     -15.121       9.353
  H      230.217     -17.822       8.842
  H      229.082     -18.560      10.849
  H      226.833     -16.632      10.028
  H      226.446     -16.497      12.473
  H      226.177     -18.150      11.858
  P      228.149     -20.526       9.172
  C      228.104     -20.386       6.614
  O      228.929     -20.486       7.767
  O      227.130     -21.611       9.286
  O      229.331     -20.729      10.234
  H      229.035     -21.333      10.945
  H      228.717     -20.367       5.737
  H      227.527     -19.486       6.665
  H      227.447     -21.229       6.571

 6  7  8  9  10  11  12  13  14  15  16  26  31  32  33  34  35 0
 6-311+G(2d,p)
 ****
 36  37 0
 6-311+G(2d,p)
 ****
 1  2  3  4  5  17  18  19  20  21  22  23  24  25 0
 3-21G
 ****
 27  28  29  30  38  39  40  41  42  43  44  45 0
 3-21G
 ****


