%nproc=1
%NoSave
%Mem=1900MB
#P OB98/GEN NMR

erre ene a

0 1
  C     -126.163     405.733    -401.210
  O     -125.162     405.454    -402.169
  H     -125.876     406.636    -400.665
  H     -126.240     404.907    -400.499
  H     -127.127     405.906    -401.694
  P     -125.395     404.256    -403.209
  C     -124.407     405.654    -405.142
  O     -124.333     404.445    -404.398
  C     -123.474     406.713    -404.546
  O     -122.153     406.128    -404.391
  C     -123.333     407.966    -405.419
  O     -123.233     409.114    -404.574
  C     -122.016     407.745    -406.138
  O     -121.399     408.972    -406.529
  C     -121.213     406.963    -405.098
  N     -116.561     407.041    -407.068
  C     -117.276     408.037    -406.436
  N     -116.675     409.242    -406.330
  N     -118.481     407.870    -405.952
  C     -118.951     406.609    -406.114
  C     -118.338     405.534    -406.720
  C     -117.015     405.740    -407.264
  O     -116.339     404.900    -407.849
  N     -119.150     404.424    -406.698
  C     -120.245     404.828    -406.084
  N     -120.183     406.148    -405.722
  O     -126.811     404.081    -403.659
  O     -124.860     402.958    -402.445
  H     -121.942     409.341    -407.261
  H     -125.598     402.406    -402.132
  H     -115.641     407.226    -407.428
  H     -121.114     404.211    -405.883
  H     -120.714     407.617    -404.377
  H     -122.180     407.145    -407.041
  H     -115.741     409.437    -406.657
  H     -124.166     408.087    -406.112
  H     -117.168     409.982    -405.845
  H     -123.835     406.971    -403.541
  H     -125.440     406.015    -405.106
  H     -124.139     405.456    -406.184
  P     -124.501     410.092    -404.445
  C     -124.003     411.351    -402.257
  O     -124.044     411.428    -403.675
  O     -125.748     409.461    -403.917
  O     -124.709     410.607    -405.948
  H     -125.665     410.729    -406.113
  H     -123.688     412.292    -401.858
  H     -123.313     410.589    -401.961
  H     -124.978     411.114    -401.884

 6  7  8  9  10  11  12  13  14  15  26  29  33  34 0
 6-311+G(2d,p)
 ****
 36  38  39  40  41 0
 6-311+G(2d,p)
 ****
 1  2  3  4  5  16  17  18  19  20  21  22  23  24  25 0
 3-21G
 ****
 27  28  30  31  32  35  37  42  43  44  45  46  47 0
 3-21G
 ****
 48  49 0
 3-21G
 ****


