%nproc=1
%NoSave
%Mem=1900MB
#P OB98/GEN NMR

erre ene a

0 1
  C      655.606    -293.350     377.749
  O      655.764    -294.397     378.686
  H      656.288    -293.527     376.909
  H      655.866    -292.392     378.208
  H      654.584    -293.320     377.368
  P      654.808    -294.435     379.972
  C      656.741    -294.026     381.620
  O      655.514    -293.531     381.098
  C      657.545    -292.896     382.259
  O      656.738    -292.281     383.296
  C      658.860    -293.361     382.899
  O      659.849    -292.361     382.677
  C      658.525    -293.431     384.375
  O      659.675    -293.258     385.201
  C      657.498    -292.306     384.519
  N      657.356    -292.657     389.553
  C      658.406    -292.346     388.713
  N      659.605    -292.118     389.294
  N      658.288    -292.265     387.413
  C      657.031    -292.503     386.966
  C      655.909    -292.827     387.702
  C      656.055    -292.920     389.143
  O      655.163    -293.203     389.937
  N      654.824    -293.019     386.887
  C      655.284    -292.825     385.661
  N      656.623    -292.519     385.664
  O      654.409    -295.798     380.436
  O      653.541    -293.562     379.539
  H      659.364    -293.282     386.136
  H      652.801    -294.134     379.277
  H      657.499    -292.714     390.548
  H      654.708    -292.897     384.758
  H      657.969    -291.325     384.656
  H      658.075    -294.408     384.608
  H      659.760    -292.144     390.287
  H      659.206    -294.326     382.511
  H      660.385    -291.867     388.696
  H      657.732    -292.125     381.498
  H      657.313    -294.466     380.793
  H      656.534    -294.808     382.356
  P      660.748    -292.446     381.351
  C      662.672    -293.873     382.293
  O      661.574    -293.821     381.385
  O      661.552    -291.224     381.031
  O      659.657    -292.729     380.201
  H      659.976    -292.336     379.364
  H      663.143    -294.831     382.228
  H      662.318    -293.717     383.290
  H      663.379    -293.110     382.042

 6  7  8  9  10  11  12  13  14  15  26  29  33  34 0
 6-311+G(2d,p)
 ****
 36  38  39  40  41 0
 6-311+G(2d,p)
 ****
 1  2  3  4  5  16  17  18  19  20  21  22  23  24  25 0
 3-21G
 ****
 27  28  30  31  32  35  37  42  43  44  45  46  47 0
 3-21G
 ****
 48  49 0
 3-21G
 ****


