%nproc=1
%NoSave
%Mem=1900MB
#P OB98/GEN NMR

erre ene a

0 1
  C       -7.330      27.406       3.640
  O       -7.659      28.263       4.717
  H       -7.666      26.393       3.881
  H       -6.248      27.380       3.478
  H       -7.831      27.736       2.727
  P       -7.130      29.775       4.671
  C       -5.137      29.253       6.235
  O       -5.555      29.687       4.945
  C       -3.622      29.381       6.365
  O       -2.964      28.445       5.488
  C       -3.101      30.756       5.970
  O       -3.359      31.704       6.985
  C       -1.639      30.446       5.719
  O       -0.903      30.375       6.947
  C       -1.729      29.056       5.048
  N       -1.669      29.127       3.592
  C       -0.434      29.494       3.046
  O        0.525      29.730       3.777
  N       -0.332      29.604       1.681
  C       -1.357      29.355       0.931
  N       -1.188      29.483      -0.412
  C       -2.672      28.952       1.466
  C       -2.757      28.863       2.791
  O       -7.852      30.769       5.527
  O       -7.207      30.152       3.117
  H       -0.013      30.052       6.705
  H       -8.079      30.532       2.901
  H       -3.498      28.749       0.802
  H       -3.687      28.570       3.267
  H       -0.914      28.408       5.394
  H       -1.170      31.205       5.095
  H       -3.549      31.071       5.022
  H       -3.341      29.133       7.395
  H       -0.271      29.773      -0.735
  H       -5.437      28.205       6.336
  H       -1.885      29.232      -1.095
  H       -5.634      29.834       7.019
  P       -3.489      33.263       6.632
  C       -0.946      33.646       6.829
  O       -2.082      33.667       5.969
  O       -3.944      34.135       7.752
  O       -4.487      33.267       5.378
  H       -5.418      33.089       5.658
  H       -0.075      33.931       6.277
  H       -0.813      32.659       7.220
  H       -1.097      34.332       7.636

 6  7  8  9  10  11  12  13  14  15  16  26  30  31  32  33  35 0
 6-311+G(2d,p)
 ****
 37  38 0
 6-311+G(2d,p)
 ****
 1  2  3  4  5  17  18  19  20  21  22  23  24  25 0
 3-21G
 ****
 27  28  29  34  36  39  40  41  42  43  44  45  46 0
 3-21G
 ****


