%nproc=1
%NoSave
%Mem=1900MB
#P OB98/GEN NMR

erre ene a

0 1
  C      104.089    -959.378      12.909
  O      104.236    -958.125      13.552
  H      105.072    -959.815      12.698
  H      103.539    -960.052      13.573
  H      103.526    -959.260      11.980
  P      105.115    -957.029      12.773
  C      106.353    -956.383      14.962
  O      106.468    -956.846      13.623
  C      107.168    -957.267      15.897
  O      106.931    -958.663      15.591
  C      108.678    -957.086      15.797
  O      109.123    -955.927      16.496
  C      109.165    -958.367      16.464
  O      109.107    -958.215      17.894
  C      108.123    -959.394      16.003
  N      110.679    -963.636      14.637
  C      110.419    -963.091      15.855
  N      109.745    -961.957      16.144
  C      109.300    -961.367      15.008
  C      109.487    -961.809      13.706
  C      110.225    -962.999      13.537
  N      110.498    -963.531      12.297
  N      108.880    -960.956      12.814
  C      108.330    -960.019      13.553
  N      108.564    -960.220      14.892
  O      104.321    -955.660      13.046
  O      105.299    -957.275      11.313
  H      108.157    -958.158      18.133
  H      104.390    -955.096      12.250
  H      110.803    -963.642      16.714
  H      107.757    -959.185      13.174
  H      107.825    -960.055      16.816
  H      110.189    -958.619      16.202
  H      109.010    -957.073      14.753
  H      106.824    -957.088      16.924
  H      105.302    -956.411      15.269
  H      110.851    -964.475      12.251
  H      110.148    -963.046      11.475
  H      106.711    -955.353      15.011
  P      109.848    -954.774      15.642
  C      111.999    -955.347      16.977
  O      111.410    -955.118      15.695
  O      109.713    -953.495      16.587
  O      109.267    -954.533      14.288
  H      109.744    -952.680      16.044
  H      113.040    -955.564      16.858
  H      111.514    -956.175      17.450
  H      111.884    -954.473      17.584

 6  7  8  9  10  11  12  13  14  15  25  28  32  33  34  35 0
 6-311+G(2d,p)
 ****
 36  39  40 0
 6-311+G(2d,p)
 ****
 1  2  3  4  5  16  17  18  19  20  21  22  23  24 0
 3-21G
 ****
 26  27  29  30  31  37  38  41  42  43  44  45  46  47  48 0
 3-21G
 ****


