%nproc=1
%NoSave
%Mem=1900MB
#P OB98/GEN NMR

erre ene a

0 1
  C      512.759     614.505     301.451
  O      513.435     614.204     302.653
  H      512.072     615.336     301.635
  H      512.180     613.645     301.107
  H      513.472     614.810     300.676
  P      514.461     612.971     302.671
  C      516.664     612.478     301.421
  O      515.804     613.477     301.954
  C      517.926     613.121     300.831
  O      517.528     613.887     299.670
  C      518.619     614.068     301.824
  O      520.002     613.783     301.999
  C      518.249     615.453     301.295
  O      519.164     616.476     301.627
  C      518.067     615.218     299.798
  N      517.197     616.193     299.140
  C      517.810     617.232     298.449
  O      519.024     617.381     298.319
  N      516.955     618.133     297.865
  C      515.593     618.105     297.917
  O      514.886     618.945     297.370
  C      515.010     617.000     298.682
  C      515.820     616.106     299.254
  O      513.926     611.676     302.151
  O      514.895     612.850     304.207
  H      520.066     616.145     301.443
  H      514.421     612.108     304.625
  H      517.387     618.887     297.347
  H      513.929     616.950     298.752
  H      515.424     615.270     299.825
  H      519.031     615.239     299.283
  H      517.284     615.734     301.731
  H      518.204     613.950     302.833
  H      518.600     612.327     300.489
  H      516.112     611.939     300.641
  H      516.944     611.771     302.212
  P      520.570     612.504     302.774
  C      522.041     610.507     301.935
  O      520.961     611.390     301.698
  O      519.769     612.056     303.949
  O      521.999     613.012     303.334
  H      522.149     612.553     304.179
  H      522.145     609.839     301.105
  H      521.852     609.943     302.825
  H      522.943     611.070     302.054

 6  7  8  9  10  11  12  13  14  15  16  26  31  32  33  34  35 0
 6-311+G(2d,p)
 ****
 36  37 0
 6-311+G(2d,p)
 ****
 1  2  3  4  5  17  18  19  20  21  22  23  24  25 0
 3-21G
 ****
 27  28  29  30  38  39  40  41  42  43  44  45 0
 3-21G
 ****


