%nproc=1
%NoSave
%Mem=1900MB
#P OB98/GEN NMR

erre ene a

0 1
  C     -229.324     -57.516      73.530
  O     -228.767     -57.335      72.224
  P     -229.796     -56.999      71.036
  C     -229.512     -59.315      69.908
  O     -230.409     -58.384      70.494
  C     -230.201     -60.146      68.813
  O     -231.306     -60.918      69.368
  C     -230.778     -59.301      67.672
  O     -230.666     -60.064      66.465
  C     -232.247     -59.188      68.041
  O     -233.045     -58.836      66.911
  C     -232.492     -60.581      68.618
  N     -237.589     -60.264      68.676
  C     -236.690     -60.186      67.674
  N     -235.341     -60.261      67.744
  C     -234.949     -60.476      69.011
  C     -235.749     -60.573      70.140
  C     -237.134     -60.456      69.939
  N     -238.049     -60.510      70.966
  N     -234.972     -60.752      71.273
  C     -233.728     -60.757      70.831
  N     -233.665     -60.625      69.470
  O     -228.837     -56.523      69.845
  O     -230.799     -55.949      71.384
  H     -232.815     -57.918      66.650
  H     -228.920     -55.558      69.717
  H     -237.107     -60.041      66.678
  H     -232.847     -60.844      71.447
  H     -232.629     -61.341      67.834
  H     -232.381     -58.417      68.810
  H     -230.303     -58.325      67.542
  H     -229.470     -60.860      68.410
  H     -229.119     -59.990      70.673
  H     -239.025     -60.390      70.743
  H     -237.722     -60.603      71.915
  H     -228.645     -58.778      69.508
  P     -229.824     -59.395      65.272
  C     -231.855     -57.958      64.539
  O     -230.512     -57.980      64.979
  O     -230.213     -60.283      63.992
  O     -228.346     -59.370      65.506
  H     -229.499     -60.245      63.329
  H     -232.376     -57.131      65.034
  H     -232.382     -58.888      64.769
  H     -231.876     -57.793      63.457
  H     -228.540     -57.733      74.225
  H     -230.019     -58.329      73.512
  H     -229.829     -56.621      73.830

 3  4  5  6  7  8  9  10  11  12  22  25  29  30  31  32 0
 6-311+G(2d,p)
 ****
 33  36  37 0
 6-311+G(2d,p)
 ****
 1  2  13  14  15  16  17  18  19  20  21  23  24  26 0
 3-21G
 ****
 27  28  34  35  38  39  40  41  42  43  44  45  46  47  48 0
 3-21G
 ****


