%nproc=1
%NoSave
%Mem=1900MB
#P OB98/GEN NMR

erre ene a

0 1
  C     -232.924     556.788     201.660
  O     -232.700     556.468     200.303
  H     -232.123     557.451     202.000
  H     -232.918     555.887     202.275
  H     -233.880     557.311     201.774
  P     -233.678     555.413     199.595
  C     -233.189     556.280     197.210
  O     -233.114     555.188     198.113
  C     -232.338     556.015     195.960
  O     -230.927     556.103     196.325
  C     -232.561     554.625     195.339
  O     -232.321     554.742     193.933
  C     -231.462     553.821     196.007
  O     -231.259     552.590     195.355
  C     -230.318     554.839     195.980
  N     -229.239     554.490     196.890
  C     -228.303     553.562     196.412
  O     -228.434     553.075     195.291
  N     -227.276     553.182     197.235
  C     -227.218     553.637     198.450
  N     -226.176     553.210     199.215
  C     -228.212     554.575     199.007
  C     -229.187     554.957     198.179
  O     -235.135     555.727     199.672
  O     -233.342     554.029     200.325
  H     -230.890     552.730     194.453
  H     -234.054     553.803     200.950
  H     -228.128     554.910     200.030
  H     -229.963     555.644     198.501
  H     -229.905     554.938     194.967
  H     -231.733     553.583     197.043
  H     -233.566     554.233     195.524
  H     -232.526     556.808     195.226
  H     -225.526     552.564     198.795
  H     -232.814     557.167     197.733
  H     -226.042     553.483     200.176
  H     -234.229     556.457     196.912
  P     -233.267     554.063     192.828
  C     -232.875     555.985     191.150
  O     -232.836     554.581     191.372
  O     -234.727     554.201     193.113
  O     -232.839     552.519     192.812
  H     -233.619     551.978     192.579
  H     -232.567     556.196     190.147
  H     -232.215     556.473     191.836
  H     -233.873     556.342     191.299

 6  7  8  9  10  11  12  13  14  15  16  26  30  31  32  33  35 0
 6-311+G(2d,p)
 ****
 37  38 0
 6-311+G(2d,p)
 ****
 1  2  3  4  5  17  18  19  20  21  22  23  24  25 0
 3-21G
 ****
 27  28  29  34  36  39  40  41  42  43  44  45  46 0
 3-21G
 ****


