%nproc=1
%NoSave
%Mem=1900MB
#P OB98/GEN NMR

erre ene a

0 1
  C       25.003      -0.571     253.664
  O       25.570      -0.511     254.963
  P       24.837      -1.207     256.207
  C       24.011       1.102     256.983
  O       23.639      -0.227     256.639
  C       23.563       1.439     258.403
  O       22.132       1.661     258.399
  C       23.851       0.329     259.409
  O       24.201       0.923     260.664
  C       22.519      -0.388     259.574
  O       22.430      -1.029     260.854
  C       21.533       0.767     259.357
  N       16.939      -1.228     260.513
  C       17.984      -0.861     261.292
  N       19.184      -0.364     260.917
  C       19.226      -0.201     259.582
  C       18.242      -0.524     258.660
  C       17.051      -1.066     259.174
  N       15.983      -1.424     258.377
  N       18.666      -0.242     257.372
  C       19.871       0.259     257.523
  N       20.253       0.314     258.839
  O       25.737      -1.615     257.324
  O       24.072      -2.461     255.574
  H       21.575      -1.505     260.879
  H       24.106      -3.226     256.180
  H       17.838      -0.991     262.359
  H       20.514       0.583     256.716
  H       21.353       1.326     260.281
  H       22.418      -1.156     258.801
  H       24.648      -0.348     259.080
  H       24.041       2.376     258.708
  H       23.526       1.788     256.280
  H       15.127      -1.690     258.841
  H       15.999      -1.145     257.405
  H       25.096       1.216     256.881
  P       25.023      -0.017     261.682
  C       22.868      -0.532     263.049
  O       23.932      -1.031     262.271
  O       25.817       0.780     262.663
  O       25.899      -0.891     260.660
  H       25.474      -0.943     259.776
  H       22.256      -1.374     263.391
  H       22.238       0.130     262.448
  H       23.249       0.007     263.922
  H       25.635      -0.052     252.974
  H       24.036      -0.113     253.675
  H       24.910      -1.593     253.362

 3  4  5  6  7  8  9  10  11  12  22  25  29  30  31  32 0
 6-311+G(2d,p)
 ****
 33  36  37 0
 6-311+G(2d,p)
 ****
 1  2  13  14  15  16  17  18  19  20  21  23  24  26 0
 3-21G
 ****
 27  28  34  35  38  39  40  41  42  43  44  45  46  47  48 0
 3-21G
 ****


