%nproc=1
%NoSave
%Mem=1900MB
#P OB98/GEN NMR

erre ene a

0 1
  C       55.976    -530.186     -32.095
  O       55.898    -529.091     -31.203
  P       55.439    -527.654     -31.740
  C       53.883    -525.770     -30.944
  O       54.606    -526.939     -30.572
  C       53.550    -524.933     -29.709
  O       52.671    -525.669     -28.831
  C       54.763    -524.567     -28.864
  O       55.500    -523.519     -29.464
  C       54.099    -524.208     -27.541
  O       53.599    -522.862     -27.575
  C       52.938    -525.212     -27.485
  N       52.237    -527.165     -22.825
  C       51.977    -525.941     -23.338
  N       52.230    -525.485     -24.584
  C       52.833    -526.435     -25.319
  C       53.197    -527.713     -24.921
  C       52.850    -528.082     -23.610
  N       53.052    -529.345     -23.096
  N       53.832    -528.375     -25.956
  C       53.859    -527.511     -26.950
  N       53.212    -526.351     -26.631
  O       54.776    -527.657     -33.080
  O       56.799    -526.814     -31.782
  H       53.303    -522.637     -26.669
  H       56.971    -526.524     -32.699
  H       51.494    -525.243     -22.661
  H       54.315    -527.684     -27.914
  H       52.014    -524.747     -27.120
  H       54.786    -524.276     -26.692
  H       55.398    -525.450     -28.721
  H       53.021    -524.030     -30.042
  H       52.962    -526.079     -31.445
  H       52.637    -529.545     -22.201
  H       53.221    -530.110     -23.748
  H       54.485    -525.183     -31.648
  P       56.772    -522.905     -28.711
  C       58.864    -521.585     -29.382
  O       57.743    -522.311     -29.844
  O       57.430    -523.803     -27.713
  O       56.196    -521.587     -28.013
  H       56.675    -521.422     -27.181
  H       58.553    -520.579     -29.082
  H       59.586    -521.502     -30.202
  H       59.343    -522.090     -28.540
  H       56.297    -531.057     -31.563
  H       56.677    -529.964     -32.872
  H       55.013    -530.366     -32.524

 3  4  5  6  7  8  9  10  11  12  22  25  29  30  31  32 0
 6-311+G(2d,p)
 ****
 33  36  37 0
 6-311+G(2d,p)
 ****
 1  2  13  14  15  16  17  18  19  20  21  23  24  26 0
 3-21G
 ****
 27  28  34  35  38  39  40  41  42  43  44  45  46  47  48 0
 3-21G
 ****


