%nproc=1
%NoSave
%Mem=1900MB
#P OB98/GEN NMR

erre ene a

0 1
  C      590.168     325.699    -255.148
  O      589.632     326.988    -255.430
  P      589.080     327.455    -256.857
  C      586.562     326.890    -257.311
  O      587.515     327.755    -256.715
  C      585.459     327.639    -258.089
  O      584.579     326.677    -258.740
  C      584.581     328.443    -257.125
  O      584.998     329.729    -256.699
  C      583.197     328.414    -257.753
  O      582.943     329.555    -258.575
  C      583.229     327.142    -258.609
  N      579.445     323.785    -259.431
  C      579.959     324.751    -260.273
  N      579.351     324.872    -261.480
  N      580.954     325.535    -259.964
  C      581.404     325.360    -258.698
  C      580.969     324.451    -257.764
  C      579.897     323.545    -258.135
  O      579.422     322.670    -257.427
  N      581.649     324.591    -256.576
  C      582.486     325.590    -256.790
  N      582.371     326.091    -258.069
  O      589.511     326.619    -258.016
  O      589.733     328.916    -257.046
  H      582.048     329.461    -258.955
  H      589.889     329.033    -258.005
  H      578.689     323.191    -259.724
  H      583.179     325.984    -256.068
  H      582.865     327.347    -259.628
  H      582.422     328.407    -256.974
  H      578.507     324.385    -261.735
  H      584.500     327.854    -256.205
  H      579.581     325.719    -262.012
  H      585.891     328.239    -258.888
  H      586.125     326.287    -256.509
  H      587.065     326.181    -257.981
  P      585.194     330.203    -255.180
  C      587.023     328.823    -254.030
  O      586.734     329.987    -254.791
  O      584.455     329.067    -254.318
  O      584.644     331.554    -254.862
  H      584.285     329.385    -253.409
  H      588.009     328.943    -253.576
  H      587.042     327.947    -254.686
  H      586.282     328.669    -253.244
  H      590.462     325.652    -254.120
  H      591.020     325.523    -255.771
  H      589.425     324.954    -255.341

 3  4  5  6  7  8  9  10  11  12  23  26  30  31 0
 6-311+G(2d,p)
 ****
 33  35  36  37  38 0
 6-311+G(2d,p)
 ****
 1  2  13  14  15  16  17  18  19  20  21  22  24  25 0
 3-21G
 ****
 27  28  29  32  34  39  40  41  42  43  44  45  46  47  48  49 0
 3-21G
 ****


