%nproc=1
%NoSave
%Mem=1900MB
#P OB98/GEN NMR

erre ene a

0 1
  C      495.228    -893.110     -15.105
  O      495.029    -894.490     -15.322
  H      494.568    -892.780     -14.289
  H      494.957    -892.550     -16.003
  H      496.259    -892.910     -14.833
  P      496.042    -895.230     -16.310
  C      494.594    -895.260     -18.481
  O      495.704    -894.700     -17.789
  C      494.531    -894.720     -19.909
  O      495.691    -895.190     -20.637
  C      493.288    -895.160     -20.703
  O      492.875    -894.080     -21.544
  C      493.795    -896.300     -21.538
  O      493.021    -896.550     -22.708
  C      495.222    -895.820     -21.858
  N      496.102    -896.890     -22.297
  C      496.469    -896.910     -23.630
  O      496.193    -896.040     -24.446
  N      497.218    -898.000     -24.016
  C      497.604    -899.050     -23.234
  O      498.252    -900.000     -23.643
  C      497.183    -898.970     -21.822
  C      496.445    -897.910     -21.422
  O      495.496    -896.740     -16.337
  O      497.482    -895.150     -15.941
  H      495.912    -897.270     -15.629
  H      493.047    -895.750     -23.277
  H      497.502    -898.040     -24.980
  H      497.445    -899.790     -21.169
  H      496.104    -897.840     -20.398
  H      495.190    -895.030     -22.639
  H      493.831    -897.210     -20.955
  H      492.451    -895.470     -20.067
  H      494.608    -893.640     -19.888
  H      493.676    -894.990     -17.953
  H      494.690    -896.350     -18.491
  P      491.619    -893.210     -21.086
  C      490.044    -894.540     -22.718
  O      490.331    -894.120     -21.394
  O      491.588    -892.080     -22.225
  O      491.739    -892.700     -19.692
  H      491.862    -892.410     -23.097
  H      489.153    -895.133     -22.719
  H      490.860    -895.122     -23.092
  H      489.902    -893.682     -23.342

 6  7  8  9  10  11  12  13  14  15  16  27  31  32  33  34  35 0
 6-311+G(2d,p)
 ****
 36  37 0
 6-311+G(2d,p)
 ****
 1  2  3  4  5  17  18  19  20  21  22  23  24  25 0
 3-21G
 ****
 26  28  29  30  38  39  40  41  42  43  44  45 0
 3-21G
 ****


