%nproc=1
%NoSave
%Mem=1900MB
#P OB98/GEN NMR

erre ene a

0 1
  C      692.879     122.888     311.169
  O      693.683     121.755     310.936
  P      693.279     120.690     309.795
  C      693.621     118.971     311.687
  O      692.813     119.367     310.572
  C      692.751     118.819     312.935
  O      692.154     120.095     313.298
  C      691.574     117.879     312.766
  O      691.852     116.507     312.559
  C      690.719     118.239     313.979
  O      691.204     117.584     315.162
  C      690.952     119.764     314.068
  N      689.791     120.534     313.603
  C      688.902     120.948     314.580
  O      689.060     120.718     315.782
  N      687.801     121.632     314.133
  C      687.474     121.878     312.836
  O      686.449     122.449     312.497
  C      688.446     121.401     311.837
  C      689.541     120.752     312.259
  O      694.309     120.473     308.739
  O      691.888     121.262     309.238
  H      691.013     116.634     315.044
  H      691.182     121.335     309.909
  H      687.134     121.924     314.830
  H      688.224     121.590     310.786
  H      690.278     120.379     311.539
  H      691.152     120.058     315.105
  H      689.677     117.938     313.841
  H      691.007     118.199     311.875
  H      693.402     118.516     313.766
  H      694.378     119.748     311.860
  H      694.144     118.037     311.456
  P      691.791     115.797     311.123
  C      690.170     113.959     311.988
  O      690.422     114.969     311.040
  O      693.033     115.119     310.648
  O      691.476     117.041     310.153
  H      691.885     116.879     309.285
  H      689.209     113.484     311.753
  H      690.105     114.395     312.995
  H      690.972     113.217     311.968
  H      693.306     123.472     311.958
  H      691.895     122.575     311.449
  H      692.826     123.477     310.277

 3  4  5  6  7  8  9  10  11  12  13  23  28  29  30  31  32 0
 6-311+G(2d,p)
 ****
 33  34 0
 6-311+G(2d,p)
 ****
 1  2  14  15  16  17  18  19  20  21  22  24  25  26  27 0
 3-21G
 ****
 35  36  37  38  39  40  41  42  43  44  45 0
 3-21G
 ****


