%nproc=1
%NoSave
%Mem=1900MB
#P OB98/GEN NMR

erre ene a

0 1
  C      142.034     295.717     268.074
  O      142.270     297.113     268.124
  P      141.191     298.073     267.418
  C      140.093     299.045     269.562
  O      139.954     298.188     268.434
  C      138.740     299.611     269.999
  O      138.934     300.444     271.168
  C      138.040     300.452     268.929
  O      136.638     300.202     269.025
  C      138.318     301.878     269.363
  O      137.337     302.785     268.860
  C      138.337     301.727     270.892
  N      139.069     302.809     271.545
  C      138.390     304.017     271.716
  O      137.257     304.159     271.255
  N      139.027     305.050     272.358
  C      140.271     304.921     272.699
  N      140.858     305.971     273.336
  C      141.061     303.706     272.426
  C      140.400     302.692     271.870
  O      140.616     297.159     266.239
  O      141.744     299.366     266.916
  H      137.525     303.673     269.235
  H      140.365     297.702     265.469
  H      142.106     303.664     272.698
  H      140.891     301.754     271.657
  H      137.314     301.709     271.292
  H      139.302     302.195     268.997
  H      138.387     300.227     267.916
  H      138.099     298.774     270.300
  H      140.301     306.799     273.498
  H      140.743     299.882     269.295
  H      141.823     305.964     273.638
  H      140.564     298.494     270.382
  P      135.808     300.087     267.656
  C      136.285     297.565     267.680
  O      136.371     298.767     266.941
  O      136.486     301.244     266.775
  O      134.326     300.249     267.712
  H      136.019     301.322     265.923
  H      136.572     296.734     267.031
  H      135.262     297.400     268.029
  H      136.973     297.600     268.529
  H      142.825     295.203     268.579
  H      141.996     295.398     267.053
  H      141.103     295.495     268.552

 3  4  5  6  7  8  9  10  11  12  13  21  23  27  28  29  30  32 0
 6-311+G(2d,p)
 ****
 34  35 0
 6-311+G(2d,p)
 ****
 1  2  14  15  16  17  18  19  20  22  24  25  26 0
 3-21G
 ****
 31  33  36  37  38  39  40  41  42  43  44  45  46 0
 3-21G
 ****


