%nproc=1
%NoSave
%Mem=1900MB
#P OB98/GEN NMR

erre ene a

0 1
  C      245.630     257.045     161.538
  O      244.239     256.767     161.355
  P      243.727     256.618     159.837
  C      241.611     258.134     159.762
  O      242.989     257.990     159.445
  C      241.067     259.455     159.218
  O      241.838     260.572     159.699
  C      241.103     259.569     157.701
  O      240.025     258.877     157.094
  C      240.957     261.072     157.516
  O      239.566     261.441     157.588
  C      241.728     261.633     158.725
  N      244.453     265.338     156.589
  C      243.082     265.218     156.736
  N      242.335     266.248     156.280
  N      242.498     264.188     157.294
  C      243.373     263.251     157.731
  C      244.745     263.252     157.637
  C      245.376     264.385     156.997
  O      246.583     264.523     156.807
  N      245.292     262.131     158.208
  C      244.250     261.463     158.669
  N      243.062     262.096     158.391
  O      242.518     255.576     159.963
  O      244.775     256.148     158.887
  H      239.509     262.389     157.356
  H      242.404     255.091     159.124
  H      244.846     266.148     156.146
  H      244.302     260.525     159.209
  H      241.186     262.458     159.201
  H      241.324     261.417     156.541
  H      242.723     267.103     155.910
  H      242.075     259.240     157.307
  H      241.330     266.191     156.414
  H      240.035     259.567     159.578
  H      241.473     258.104     160.844
  H      241.058     257.281     159.346
  P      240.391     257.712     156.054
  C      238.985     258.711     154.122
  O      240.268     258.371     154.602
  O      239.129     256.735     156.149
  O      241.674     257.000     156.351
  H      239.389     255.816     155.945
  H      238.380     259.181     154.896
  H      238.478     257.809     153.759
  H      239.092     259.408     153.287
  H      245.844     257.121     162.584
  H      245.876     257.968     161.056
  H      246.211     256.254     161.111

 3  4  5  6  7  8  9  10  11  12  23  26  30  31  33  0
 6-311+G(2d,p)
 ****
 35  36  37  38 0
 6-311+G(2d,p)
 ****
 1  2  13  14  15  16  17  18  19  20  21  22  24  25  27  28  29 0
 3-21G
 ****
 32  34  39  40  41  42  43  44  45  46  47  48  49 0
 3-21G
 ****


