%nproc=1
%NoSave
%Mem=1900MB
#P OB98/GEN NMR

erre ene a

0 1
  C      607.921     289.377    -157.982
  O      608.720     289.327    -156.818
  H      608.401     288.828    -158.794
  H      606.955     288.914    -157.766
  H      607.755     290.416    -158.282
  P      610.188     289.969    -156.919
  C      609.991     290.175    -154.334
  O      610.817     289.852    -155.445
  C      610.810     290.103    -153.053
  O      612.068     290.792    -153.224
  C      610.144     290.757    -151.847
  O      609.188     289.909    -151.236
  C      611.347     290.965    -150.941
  O      611.709     289.717    -150.323
  C      612.423     291.393    -151.947
  N      614.460     295.694    -150.067
  C      614.531     294.410    -149.660
  N      613.956     293.323    -150.213
  C      613.245     293.663    -151.299
  C      613.068     294.934    -151.826
  C      613.725     295.984    -151.166
  N      613.637     297.301    -151.568
  N      612.236     294.891    -152.928
  C      611.943     293.615    -153.081
  N      612.518     292.833    -152.113
  O      609.903     291.536    -157.068
  O      611.055     289.440    -158.012
  H      612.281     289.936    -149.564
  H      610.682     291.984    -157.454
  H      615.131     294.229    -148.773
  H      611.322     293.211    -153.867
  H      613.421     291.030    -151.679
  H      611.164     291.680    -150.140
  H      609.712     291.734    -152.101
  H      611.033     289.047    -152.849
  H      609.165     289.456    -154.279
  H      613.987     297.992    -150.922
  H      612.975     297.538    -152.291
  H      609.583     291.179    -154.472
  P      607.977     290.608    -150.448
  C      606.373     288.993    -151.699
  O      606.781     289.548    -150.451
  O      607.484     291.743    -151.463
  O      608.348     291.168    -149.110
  H      607.062     292.478    -150.982
  H      605.569     288.306    -151.538
  H      607.197     288.479    -152.147
  H      606.046     289.778    -152.349

 6  7  8  9  10  11  12  13  14  15  25  28  32  33  34  35 0
 6-311+G(2d,p)
 ****
 36  39  40 0
 6-311+G(2d,p)
 ****
 1  2  3  4  5  16  17  18  19  20  21  22  23  24 0
 3-21G
 ****
 26  27  29  30  31  37  38  41  42  43  44  45  46  47 0
 3-21G
 ****
 48 0
 3-21G
 ****


