%nproc=1
%NoSave
%Mem=1900MB
#P OB98/GEN NMR

erre ene a

0 1
  C     -317.681     258.117     -74.901
  O     -316.696     257.276     -74.278
  P     -315.646     256.481     -75.207
  C     -316.608     254.181     -74.432
  O     -316.180     254.999     -75.508
  C     -315.889     252.825     -74.438
  O     -316.038     252.175     -75.733
  C     -314.375     252.911     -74.155
  O     -314.005     251.716     -73.456
  C     -313.783     252.898     -75.558
  O     -312.408     252.528     -75.580
  C     -314.719     251.897     -76.237
  N     -314.698     251.953     -77.702
  C     -314.897     250.770     -78.405
  O     -315.035     249.669     -77.883
  N     -314.917     250.884     -79.771
  C     -314.707     252.030     -80.490
  O     -314.699     252.061     -81.714
  C     -314.465     253.243     -79.694
  C     -314.481     253.150     -78.360
  O     -314.444     256.203     -74.178
  O     -315.142     257.234     -76.394
  H     -312.132     252.514     -76.517
  H     -313.588     256.416     -74.604
  H     -315.073     250.042     -80.296
  H     -314.308     254.175     -80.225
  H     -314.313     254.038     -77.755
  H     -314.464     250.881     -75.911
  H     -313.867     253.900     -75.992
  H     -314.097     253.794     -73.575
  H     -316.371     252.181     -73.701
  H     -317.686     254.008     -74.525
  H     -316.424     254.703     -73.490
  P     -313.610     251.834     -71.900
  C     -311.095     252.444     -72.255
  O     -312.364     252.841     -71.801
  O     -312.937     250.393     -71.670
  O     -314.766     252.098     -70.982
  H     -312.326     250.145     -72.383
  H     -311.158     251.885     -73.194
  H     -310.604     251.828     -71.499
  H     -310.489     253.344     -72.424
  H     -318.293     258.567     -74.148
  H     -318.292     257.528     -75.553
  H     -317.191     258.882     -75.466

 3  4  5  6  7  8  9  10  11  12  13  23  28  29  30  31  32 0
 6-311+G(2d,p)
 ****
 33  34 0
 6-311+G(2d,p)
 ****
 1  2  14  15  16  17  18  19  20  21  22  24  25  26 0
 3-21G
 ****
 27  35  36  37  38  39  40  41  42  43  44  45 0
 3-21G
 ****


