%nproc=1
%NoSave
%Mem=1900MB
#P OB98/GEN NMR

erre ene a

0 1
  C       18.876     252.482     -69.685
  O       17.979     251.602     -69.041
  H       18.666     253.502     -69.348
  H       18.741     252.438     -70.769
  H       19.911     252.238     -69.430
  P       18.157     250.024     -69.257
  C       19.494     249.987     -67.054
  O       19.451     249.584     -68.417
  C       19.649     248.763     -66.156
  O       20.059     249.164     -64.830
  C       18.361     247.968     -65.970
  O       18.072     247.200     -67.119
  C       18.707     247.168     -64.723
  O       19.535     246.041     -65.047
  C       19.504     248.207     -63.899
  N       18.689     248.871     -62.879
  C       18.536     248.191     -61.678
  O       19.039     247.092     -61.456
  N       17.738     248.801     -60.746
  C       17.026     249.950     -60.935
  O       16.158     250.342     -60.162
  C       17.287     250.662     -62.194
  C       18.082     250.092     -63.102
  O       18.132     249.555     -70.673
  O       16.951     249.393     -68.410
  H       16.229     249.141     -69.016
  H       19.706     245.573     -64.207
  H       17.581     248.294     -59.888
  H       16.791     251.611     -62.356
  H       18.265     250.585     -64.051
  H       20.353     247.726     -63.394
  H       17.820     246.780     -64.218
  H       17.531     248.646     -65.735
  H       20.440     248.128     -66.575
  H       18.557     250.501     -66.813
  H       20.328     250.683     -66.913
  P       16.809     246.219     -67.163
  C       15.294     248.262     -66.830
  O       15.594     246.941     -66.405
  O       17.075     244.821     -66.717
  O       16.341     246.249     -68.695
  H       16.282     245.332     -69.029
  H       14.472     248.642     -66.260
  H       15.034     248.252     -67.868
  H       16.150     248.887     -66.683

 6  7  8  9  10  11  12  13  14  15  16  27  31  32  33  34  35 0
 6-311+G(2d,p)
 ****
 36  37 0
 6-311+G(2d,p)
 ****
 1  2  3  4  5  17  18  19  20  21  22  23  24  25 0
 3-21G
 ****
 26  28  29  30  38  39  40  41  42  43  44  45 0
 3-21G
 ****


