%nproc=1
%NoSave
%Mem=1900MB
#P OB98/GEN NMR

erre ene a

0 1
  C       -0.783       3.243      94.036
  O       -1.737       2.542      94.850
  P       -1.234       1.215      95.602
  C       -3.426      -0.196      95.313
  O       -2.559       0.522      96.182
  C       -4.835      -0.243      95.902
  O       -5.420       1.083      95.939
  C       -5.815      -1.094      95.105
  O       -5.574      -2.483      95.301
  C       -7.145      -0.594      95.650
  O       -7.437      -1.216      96.913
  C       -6.855       0.913      95.862
  N       -7.438       1.758      94.827
  C       -8.783       2.087      94.999
  O       -9.459       1.678      95.944
  N       -9.331       2.885      94.030
  C       -8.689       3.354      92.921
  O       -9.228       4.081      92.092
  C       -7.287       2.933      92.767
  C       -6.734       2.165      93.708
  O       -0.516       1.844      96.883
  O       -0.367       0.353      94.744
  H       -0.956       2.646      97.214
  H       -6.679      -1.021      97.499
  H      -10.296       3.148      94.145
  H       -6.754       3.265      91.884
  H       -5.700       1.841      93.614
  H       -7.252       1.240      96.831
  H       -7.983      -0.806      94.977
  H       -5.736      -0.853      94.037
  H       -4.761      -0.617      96.936
  H       -3.057      -1.217      95.180
  H       -3.422       0.289      94.329
  P       -5.631      -3.421      93.995
  C       -7.381      -5.181      94.816
  O       -6.040      -4.884      94.504
  O       -4.074      -3.546      93.637
  O       -6.472      -2.862      92.892
  H       -3.517      -3.713      94.416
  H       -7.514      -6.270      94.798
  H       -8.068      -4.736      94.093
  H       -7.615      -4.815      95.819
  H       -1.250       4.101      93.598
  H       -0.430       2.595      93.261
  H        0.041       3.556      94.642

 3  4  5  6  7  8  9  10  11  12  13  24  28  29  30  31  32 0
 6-311+G(2d,p)
 ****
 33  34 0
 6-311+G(2d,p)
 ****
 1  2  14  15  16  17  18  19  20  21  22  23  25  26  27 0
 3-21G
 ****
 35  36  37  38  39  40  41  42  43  44  45 0
 3-21G
 ****


