%nproc=1
%NoSave
%Mem=1900MB
#P OB98/GEN NMR

erre ene a

0 1
  C      455.889     161.328    -286.014
  O      457.207     161.798    -285.768
  P      458.205     162.162    -286.973
  C      458.975     159.731    -287.410
  O      459.334     161.021    -286.946
  C      460.067     158.716    -287.062
  O      459.587     157.388    -287.390
  C      461.389     158.928    -287.807
  O      462.447     158.561    -286.910
  C      461.293     157.944    -288.957
  O      462.570     157.602    -289.492
  C      460.550     156.788    -288.279
  N      459.899     155.907    -289.246
  C      460.665     154.881    -289.809
  O      461.852     154.748    -289.521
  N      460.064     154.026    -290.697
  C      458.833     154.221    -291.057
  N      458.267     153.313    -291.894
  C      458.021     155.357    -290.571
  C      458.604     156.132    -289.662
  O      458.728     163.553    -286.952
  O      457.390     161.788    -288.292
  H      462.946     158.392    -289.915
  H      456.791     162.518    -288.596
  H      457.012     155.498    -290.924
  H      458.082     156.975    -289.224
  H      461.240     156.207    -287.655
  H      460.696     158.385    -289.766
  H      461.536     159.968    -288.129
  H      460.231     158.746    -285.975
  H      458.793     152.461    -292.065
  H      458.869     159.772    -288.498
  H      457.259     153.217    -291.955
  H      458.013     159.436    -286.984
  P      463.610     159.629    -286.622
  C      465.328     158.683    -288.324
  O      465.016     158.940    -286.970
  O      463.640     159.646    -285.017
  O      463.386     161.011    -287.144
  H      463.995     160.509    -284.715
  H      466.319     158.226    -288.374
  H      465.350     159.619    -288.896
  H      464.602     157.997    -288.764
  H      455.395     161.146    -285.082
  H      455.934     160.419    -286.577
  H      455.345     162.065    -286.568

 3  4  5  6  7  8  9  10  11  12  13  23  27  28  29  30  32 0
 6-311+G(2d,p)
 ****
 34  35 0
 6-311+G(2d,p)
 ****
 1  2  14  15  16  17  18  19  20  21  22  24  25  26 0
 3-21G
 ****
 31  33  36  37  38  39  40  41  42  43  44  45  46 0
 3-21G
 ****


