%nproc=1
%NoSave
%Mem=1900MB
#P OB98/GEN NMR

erre ene a

0 1
  C     1059.280     469.544    -540.154
  O     1059.227     469.247    -538.773
  H     1058.334     470.003    -540.450
  H     1059.415     468.622    -540.727
  H     1060.094     470.237    -540.359
  P     1060.545     468.597    -538.130
  C     1060.971     470.584    -536.493
  O     1060.663     469.201    -536.646
  C     1059.713     471.378    -536.137
  O     1059.138     470.819    -534.917
  C     1059.975     472.881    -535.875
  O     1058.801     473.611    -536.254
  C     1060.130     472.893    -534.362
  O     1059.998     474.216    -533.878
  C     1059.018     471.911    -533.984
  N     1056.573     471.415    -529.521
  C     1056.174     471.845    -530.743
  N     1056.880     471.942    -531.875
  C     1058.135     471.500    -531.697
  C     1058.694     471.015    -530.526
  C     1057.860     470.987    -529.401
  N     1058.278     470.557    -528.148
  N     1060.016     470.676    -530.719
  C     1060.253     470.937    -532.001
  N     1059.138     471.434    -532.627
  O     1061.729     469.308    -538.931
  O     1060.629     467.104    -538.202
  H     1059.216     474.655    -534.264
  H     1061.992     468.770    -539.697
  H     1055.131     472.169    -530.790
  H     1061.195     470.805    -532.515
  H     1058.018     472.345    -534.096
  H     1061.103     472.526    -534.058
  H     1060.838     473.259    -536.411
  H     1058.960     471.234    -536.936
  H     1061.397     470.958    -537.438
  H     1061.713     470.691    -535.691
  H     1057.624     470.591    -527.395
  H     1059.249     470.279    -528.033
  P     1058.767     474.348    -537.678
  C     1056.342     473.666    -538.380
  O     1057.250     474.716    -538.080
  O     1059.105     473.152    -538.685
  O     1059.764     475.462    -537.843
  H     1059.769     473.441    -539.324
  H     1055.386     474.080    -538.625
  H     1056.245     473.024    -537.529
  H     1056.710     473.103    -539.212

 6  7  8  9  10  11  12  13  14  15  25  28  32  33  34  35 0
 6-311+G(2d,p)
 ****
 36  37  40 0
 6-311+G(2d,p)
 ****
 1  2  3  4  5  16  17  18  19  20  21  22  23  24 0
 3-21G
 ****
 26  27  29  30  31  38  39 41  42  43  44  45  46  47  48 0
 3-21G
 ****


