%nproc=1
%NoSave
%Mem=1900MB
#P OB98/GEN NMR

erre ene a

0 1
  C     -176.421     147.363    -614.899
  O     -176.070     148.128    -616.028
  H     -176.259     147.964    -613.998
  H     -175.789     146.466    -614.837
  H     -177.473     147.071    -614.929
  P     -176.403     147.554    -617.488
  C     -175.116     146.213    -619.277
  O     -175.031     146.989    -618.092
  C     -173.854     145.372    -619.460
  O     -172.709     146.232    -619.710
  C     -173.479     144.548    -618.228
  O     -174.314     143.409    -618.112
  C     -172.010     144.245    -618.525
  O     -171.897     143.153    -619.456
  C     -171.551     145.569    -619.167
  N     -170.840     146.455    -618.220
  C     -169.466     146.235    -618.096
  O     -168.864     145.359    -618.702
  N     -168.813     147.095    -617.234
  C     -169.401     148.037    -616.440
  O     -168.781     148.740    -615.648
  C     -170.859     148.174    -616.597
  C     -171.500     147.393    -617.458
  O     -177.158     148.472    -618.395
  O     -177.243     146.218    -617.189
  H     -172.117     142.347    -618.958
  H     -178.197     146.389    -617.302
  H     -167.821     146.954    -617.120
  H     -171.362     148.919    -615.975
  H     -172.576     147.487    -617.573
  H     -170.876     145.378    -620.001
  H     -171.454     143.950    -617.629
  H     -173.535     145.166    -617.324
  H     -173.985     144.723    -620.329
  H     -175.218     146.889    -620.142
  H     -176.006     145.568    -619.228
  P     -174.070     142.327    -616.951
  C     -173.358     139.877    -616.817
  O     -173.392     141.038    -617.625
  O     -175.274     142.033    -616.097
  O     -172.883     142.965    -616.071
  H     -173.227     143.306    -615.232
  H     -172.889     139.081    -617.356
  H     -174.357     139.593    -616.558
  H     -172.803     140.079    -615.925

 6  7  8  9  10  11  12  13  14  15  16  26  31  32  33  34  35 0
 6-311+G(2d,p)
 ****
 36  37 0
 6-311+G(2d,p)
 ****
 1  2  3  4  5  17  18  19  20  21  22  23  24  25 0
 3-21G
 ****
 27  28  29  30  38  39  40  41  42  43  44  45 0
 3-21G
 ****


