%nproc=1
%NoSave
%Mem=1900MB
#P OB98/GEN NMR

erre ene a

0 1
  C       37.277     234.460     540.657
  O       37.695     233.117     540.497
  H       37.085     234.888     539.670
  H       38.066     235.037     541.146
  H       36.359     234.507     541.248
  P       37.801     232.241     541.833
  C       35.634     230.802     542.169
  O       36.305     232.035     542.390
  C       34.752     230.463     543.366
  O       35.517     230.488     544.588
  C       33.636     231.462     543.620
  O       32.596     231.369     542.671
  C       33.211     231.061     545.027
  O       32.283     229.970     545.007
  C       34.553     230.625     545.663
  N       34.995     231.557     546.683
  C       34.514     231.301     547.975
  O       33.791     230.328     548.183
  N       34.840     232.174     548.980
  C       35.552     233.224     548.717
  N       35.811     234.069     549.753
  C       36.074     233.532     547.369
  C       35.760     232.665     546.410
  O       38.439     233.275     542.874
  O       38.568     230.970     541.689
  H       31.969     229.859     545.927
  H       37.992     234.137     542.892
  H       36.677     234.412     547.204
  H       36.101     232.812     545.391
  H       34.458     229.633     546.121
  H       32.725     231.885     545.552
  H       34.044     232.481     543.666
  H       34.356     229.450     543.223
  H       35.388     233.849     550.647
  H       36.355     229.998     541.990
  H       36.287     234.953     549.651
  H       35.027     230.910     541.266
  P       31.822     232.671     542.154
  C       33.168     232.852     539.964
  O       32.847     233.471     541.206
  O       31.193     233.507     543.216
  O       30.784     232.076     541.091
  H       31.189     231.597     540.345
  H       33.853     233.471     539.423
  H       32.275     232.721     539.389
  H       33.618     231.898     540.146

 6  7  8  9  10  11  12  13  14  15  16  26  30  31  32  33  35 0
 6-311+G(2d,p)
 ****
 37  38 0
 6-311+G(2d,p)
 ****
 1  2  3  4  5  17  18  19  20  21  22  23  24  25 0
 3-21G
 ****
 27  28  29  34  36  39  40  41  42  43  44  45  46 0
 3-21G
 ****


