%nproc=1
%NoSave
%Mem=1900MB
#P OB98/GEN NMR

erre ene a

0 1
  C      134.118     125.935     207.837
  O      132.882     125.487     208.346
  P      132.766     124.056     209.069
  C      133.093     121.683     208.133
  O      132.551     122.980     207.899
  C      133.186     120.906     206.822
  O      133.859     121.688     205.792
  C      134.005     119.628     206.912
  O      133.505     118.586     207.718
  C      134.237     119.315     205.440
  O      133.101     118.667     204.866
  C      134.408     120.740     204.850
  N      135.809     121.041     204.541
  C      136.015     122.031     203.587
  O      135.105     122.642     203.022
  N      137.321     122.295     203.280
  C      138.414     121.645     203.780
  O      139.560     121.901     203.419
  C      138.128     120.593     204.766
  C      136.857     120.342     205.096
  O      131.767     123.986     210.174
  O      134.275     123.757     209.535
  H      133.345     118.389     203.967
  H      134.922     123.725     208.810
  H      137.502     123.001     202.576
  H      138.976     120.063     205.190
  H      136.622     119.571     205.825
  H      133.824     120.840     203.924
  H      135.096     118.655     205.293
  H      134.990     119.881     207.343
  H      132.169     120.710     206.464
  H      132.432     121.146     208.822
  H      134.077     121.773     208.615
  P      134.334     117.265     208.071
  C      135.253     115.419     206.508
  O      134.150     116.213     206.884
  O      134.209     116.757     209.476
  O      135.842     117.762     207.846
  H      136.437     117.287     208.451
  H      134.965     114.795     205.654
  H      135.554     114.765     207.326
  H      136.094     116.051     206.203
  H      133.993     126.902     207.396
  H      134.469     125.248     207.095
  H      134.831     125.995     208.633

 3  4  5  6  7  8  9  10  11  12  13  23  28  29  30  31  32 0
 6-311+G(2d,p)
 ****
 33  34 0
 6-311+G(2d,p)
 ****
 1  2  14  15  16  17  18  19  20  21  22  24  25  26  27 0
 3-21G
 ****
 35  36  37  38  39  40  41  42  43  44  45 0
 3-21G
 ****


