%nproc=1
%NoSave
%Mem=1900MB
#P OB98/GEN NMR

erre ene a

0 1
  C      -57.187     722.023     575.242
  O      -58.481     721.484     575.439
  H      -56.472     721.426     575.812
  H      -57.149     723.055     575.595
  H      -56.916     721.979     574.179
  P      -59.684     722.208     574.662
  C      -61.869     721.349     573.540
  O      -60.553     721.041     573.975
  C      -62.861     720.418     574.231
  O      -62.552     719.046     573.918
  C      -62.835     720.502     575.748
  O      -63.534     721.643     576.243
  C      -63.486     719.179     576.123
  O      -64.918     719.270     576.094
  C      -62.986     718.233     575.035
  N      -61.849     713.760     577.214
  C      -63.011     714.283     576.797
  N      -63.237     715.485     576.209
  C      -62.078     716.142     576.047
  C      -60.811     715.733     576.415
  C      -60.703     714.475     577.032
  N      -59.518     713.952     577.476
  N      -59.880     716.712     576.116
  C      -60.564     717.685     575.560
  N      -61.900     717.391     575.500
  O      -58.949     722.911     573.425
  O      -60.465     723.185     575.472
  H      -65.173     719.865     576.826
  H      -58.809     723.859     573.621
  H      -63.896     713.671     576.967
  H      -60.146     718.625     575.211
  H      -63.773     717.566     574.663
  H      -63.194     718.880     577.137
  H      -61.792     720.503     576.113
  H      -63.878     720.634     573.852
  H      -61.938     721.209     572.460
  H      -62.083     722.399     573.778
  H      -59.535     713.070     577.964
  H      -58.688     714.523     577.444
  P      -62.991     722.316     577.590
  C      -62.793     724.757     578.502
  O      -63.165     723.906     577.431
  O      -61.399     722.108     577.502
  O      -63.556     721.753     578.847
  H      -61.038     721.958     578.407
  H      -62.974     725.775     578.228
  H      -61.753     724.625     578.718
  H      -63.371     724.513     579.369

 6  7  8  9  10  11  12  13  14  15  25  28  32  33  34  35 0
 6-311+G(2d,p)
 ****
 36  37  40 0
 6-311+G(2d,p)
 ****
 1  2  3  4  5  16  17  18  19  20  21  22  23  24 0
 3-21G
 ****
 26  27  29  30  31  38  39 41  42  43  44  45  46  47  48 0
 3-21G
 ****


