%nproc=1
%NoSave
%Mem=1900MB
#P OB98/GEN NMR

erre ene a

0 1
  C     -513.829     136.552     239.698
  O     -513.415     137.787     239.105
  P     -514.450     139.013     239.144
  C     -512.995     140.455     240.737
  O     -514.243     139.817     240.519
  C     -513.086     141.490     241.869
  O     -513.923     142.614     241.480
  C     -513.681     140.928     243.166
  O     -513.105     141.636     244.270
  C     -515.142     141.311     243.054
  O     -515.800     141.273     244.319
  C     -515.015     142.694     242.414
  N     -519.162     145.525     242.868
  C     -518.139     145.297     243.764
  N     -518.213     145.949     244.945
  N     -517.127     144.501     243.527
  C     -517.168     143.950     242.291
  C     -518.130     144.090     241.316
  C     -519.254     144.953     241.605
  O     -520.199     145.179     240.854
  N     -517.828     143.345     240.204
  C     -516.693     142.751     240.510
  N     -516.232     143.113     241.748
  O     -515.860     138.282     239.349
  O     -514.446     139.844     237.906
  H     -516.762     141.376     244.152
  H     -516.379     138.331     238.525
  H     -519.923     146.140     243.108
  H     -516.163     142.053     239.879
  H     -514.773     143.470     243.155
  H     -515.659     140.615     242.374
  H     -518.936     146.615     245.172
  H     -513.534     139.853     243.311
  H     -517.457     145.831     245.604
  H     -512.080     141.884     242.066
  H     -512.659     140.951     239.822
  H     -512.240     139.692     240.956
  P     -512.515     140.756     245.470
  C     -509.997     141.372     245.367
  O     -511.000     140.419     245.077
  O     -513.265     139.350     245.312
  O     -512.714     141.345     246.827
  H     -513.302     138.886     246.163
  H     -509.438     141.045     246.248
  H     -510.412     142.366     245.551
  H     -509.313     141.432     244.516
  H     -513.046     135.829     239.600
  H     -514.708     136.195     239.203
  H     -514.043     136.708     240.735

 3  4  5  6  7  8  9  10  11  12  23  26  30  31 0
 6-311+G(2d,p)
 ****
 33  35  36  37  38 0
 6-311+G(2d,p)
 ****
 1  2  13  14  15  16  17  18  19  20  21  22  24  25 0
 3-21G
 ****
 27  28  29  32  34  39  40  41  42  43  44  45  46  47  48  49 0
 3-21G
 ****


