%nproc=1
%NoSave
%Mem=1900MB
#P OB98/GEN NMR

erre ene a

0 1
  C       72.883      40.544      74.488
  O       72.055      41.682      74.307
  P       71.457      42.384      75.622
  C       69.042      41.704      74.951
  O       70.059      41.665      75.942
  C       67.709      42.152      75.554
  O       67.165      41.064      76.352
  C       67.804      43.386      76.467
  O       66.591      44.126      76.288
  C       67.867      42.756      77.847
  O       67.576      43.653      78.905
  C       66.886      41.602      77.664
  N       66.354      40.551      82.638
  C       66.065      41.656      81.916
  N       66.226      41.860      80.592
  C       66.735      40.765      80.002
  C       67.097      39.575      80.610
  C       66.887      39.486      81.995
  N       67.191      38.358      82.731
  N       67.612      38.689      79.687
  C       67.565      39.334      78.539
  N       67.023      40.583      78.678
  O       71.014      43.825      75.090
  O       72.406      42.478      76.775
  H       66.726      44.106      78.734
  H       71.201      44.518      75.752
  H       65.648      42.488      82.476
  H       67.917      38.952      77.592
  H       65.844      41.944      77.670
  H       68.881      42.377      78.019
  H       68.655      44.033      76.233
  H       67.005      42.340      74.736
  H       68.908      40.704      74.529
  H       67.191      38.465      83.736
  H       67.772      37.660      82.284
  H       69.350      42.372      74.141
  P       66.664      45.726      76.205
  C       65.429      45.852      78.454
  O       66.600      46.195      77.739
  O       65.184      46.072      75.700
  O       67.756      46.286      75.361
  H       64.507      45.631      76.246
  H       65.560      46.143      79.500
  H       65.258      44.774      78.405
  H       64.570      46.389      78.043
  H       73.207      40.183      73.534
  H       72.331      39.777      74.990
  H       73.735      40.813      75.076

 3  4  5  6  7  8  9  10  11  12  22  25  29  30  31  32 0
 6-311+G(2d,p)
 ****
 33  36  37 0
 6-311+G(2d,p)
 ****
 1  2  13  14  15  16  17  18  19  20  21  23  24  26 0
 3-21G
 ****
 27  28  34  35  38  39  40  41  42  43  44  45  46  47  48 0
 3-21G
 ****


