%nproc=1
%NoSave
%Mem=1900MB
#P OB98/GEN NMR

erre ene a

0 1
  C      -50.010    -370.842    -299.859
  O      -50.157    -369.495    -299.440
  P      -50.574    -368.425    -300.563
  C      -48.552    -366.927    -299.880
  O      -49.248    -367.601    -300.914
  C      -47.054    -366.901    -300.195
  O      -46.588    -368.234    -300.498
  C      -46.679    -366.037    -301.392
  O      -46.593    -364.674    -301.012
  C      -45.344    -366.646    -301.804
  O      -44.275    -366.152    -300.972
  C      -45.588    -368.142    -301.553
  N      -44.366    -369.566    -306.251
  C      -43.741    -368.670    -305.398
  N      -42.597    -368.114    -305.852
  N      -44.190    -368.361    -304.213
  C      -45.349    -368.984    -303.899
  C      -46.074    -369.871    -304.659
  C      -45.537    -370.252    -305.947
  O      -46.002    -371.108    -306.694
  N      -47.212    -370.282    -304.011
  C      -47.154    -369.663    -302.848
  N      -46.035    -368.879    -302.720
  O      -51.481    -367.390    -299.760
  O      -51.274    -369.000    -301.760
  H      -44.314    -365.179    -300.947
  H      -52.431    -367.580    -299.895
  H      -43.968    -369.780    -307.145
  H      -47.888    -369.762    -302.060
  H      -44.686    -368.650    -301.181
  H      -45.076    -366.402    -302.833
  H      -42.204    -368.287    -306.767
  H      -47.407    -366.166    -302.200
  H      -42.125    -367.456    -305.246
  H      -46.525    -366.563    -299.295
  H      -48.711    -367.450    -298.936
  H      -48.941    -365.907    -299.789
  P      -47.387    -363.604    -301.907
  C      -45.155    -362.300    -302.162
  O      -46.300    -362.839    -302.800
  O      -47.852    -362.507    -300.838
  O      -48.551    -364.166    -302.656
  H      -48.731    -362.163    -301.087
  H      -44.327    -362.304    -302.870
  H      -44.869    -362.881    -301.283
  H      -45.363    -361.271    -301.862
  H      -49.732    -371.448    -299.022
  H      -49.250    -370.901    -300.610
  H      -50.937    -371.193    -300.262

 3  4  5  6  7  8  9  10  11  12  23  26  30  31 0
 6-311+G(2d,p)
 ****
 33  35  36  37  38 0
 6-311+G(2d,p)
 ****
 1  2  13  14  15  16  17  18  19  20  21  22  24  25 0
 3-21G
 ****
 27  28  29  32  34  39  40  41  42  43  44  45  46  47  48  49 0
 3-21G
 ****


