%nproc=1
%NoSave
%Mem=1900MB
#P OB98/GEN NMR

erre ene a

0 1
  C     -312.556    -243.710     542.145
  O     -312.389    -244.931     541.453
  H     -313.478    -243.765     542.732
  H     -312.638    -242.880     541.442
  H     -311.720    -243.544     542.830
  P     -311.139    -245.095     540.461
  C     -311.033    -247.587     541.136
  O     -311.060    -246.650     540.062
  C     -311.797    -248.856     540.747
  O     -313.202    -248.505     540.598
  C     -311.304    -249.456     539.417
  O     -310.974    -250.838     539.516
  C     -312.405    -249.055     538.430
  O     -312.529    -249.910     537.313
  C     -313.658    -248.969     539.318
  N     -314.696    -248.088     538.790
  C     -315.792    -248.683     538.175
  O     -315.965    -249.893     538.056
  N     -316.740    -247.819     537.686
  C     -316.689    -246.459     537.737
  O     -317.571    -245.732     537.286
  C     -315.487    -245.883     538.380
  C     -314.565    -246.709     538.862
  O     -309.857    -244.511     540.946
  O     -311.628    -244.403     539.100
  H     -312.740    -250.805     537.656
  H     -311.192    -243.531     539.001
  H     -317.547    -248.236     537.262
  H     -315.411    -244.801     538.418
  H     -313.663    -246.321     539.329
  H     -314.100    -249.961     539.454
  H     -312.176    -248.052     538.049
  H     -310.362    -248.992     539.104
  H     -311.722    -249.578     541.567
  H     -311.495    -247.115     542.003
  H     -309.994    -247.842     541.379
  P     -309.555    -251.466     539.150
  C     -308.916    -252.223     541.588
  O     -309.188    -252.583     540.233
  O     -308.479    -250.498     538.788
  O     -309.862    -252.350     537.827
  H     -309.047    -252.330     537.284
  H     -308.693    -253.104     542.153
  H     -309.773    -251.738     542.007
  H     -308.079    -251.558     541.619

 6  7  8  9  10  11  12  13  14  15  16  26  31  32  33  34  35 0
 6-311+G(2d,p)
 ****
 36  37 0
 6-311+G(2d,p)
 ****
 1  2  3  4  5  17  18  19  20  21  22  23  24  25 0
 3-21G
 ****
 27  28  29  30  38  39  40  41  42  43  44  45 0
 3-21G
 ****


