%nproc=1
%NoSave
%Mem=1900MB
#P OB98/GEN NMR

erre ene a

0 1
  C     -173.979      15.320      -0.068
  O     -174.582      16.536       0.382
  P     -176.179      16.698       0.410
  C     -177.434      15.083       1.950
  O     -176.716      16.311       1.876
  C     -177.568      14.542       3.380
  O     -176.267      14.235       3.943
  C     -178.271      15.485       4.363
  O     -178.981      14.640       5.274
  C     -177.104      16.166       5.050
  O     -177.470      16.768       6.286
  C     -176.106      15.003       5.150
  N     -174.732      15.464       5.321
  C     -174.415      16.073       6.536
  O     -175.289      16.254       7.387
  N     -173.128      16.508       6.745
  C     -172.263      16.428       5.782
  N     -171.010      16.896       6.039
  C     -172.575      15.872       4.452
  C     -173.814      15.404       4.299
  O     -176.894      16.022      -0.713
  O     -176.405      18.285       0.345
  H     -176.657      17.111       6.713
  H     -177.250      18.472      -0.107
  H     -171.829      15.852       3.673
  H     -174.140      14.971       3.361
  H     -176.359      14.349       5.995
  H     -176.701      16.955       4.402
  H     -178.949      16.191       3.878
  H     -178.116      13.593       3.319
  H     -170.842      17.296       6.955
  H     -176.915      14.340       1.334
  H     -170.298      16.989       5.331
  H     -178.427      15.225       1.512
  P     -180.574      14.699       5.424
  C     -181.265      13.582       3.227
  O     -181.160      13.435       4.632
  O     -181.192      16.008       5.053
  O     -180.858      14.334       6.960
  H     -181.762      14.620       7.195
  H     -181.467      12.604       2.783
  H     -180.337      13.977       2.806
  H     -182.089      14.260       2.987
  H     -172.914      15.408      -0.012
  H     -174.269      15.132      -1.081
  H     -174.303      14.510       0.552

 3  4  5  6  7  8  9  10  11  12  13  23  27  28  29  30  32 0
 6-311+G(2d,p)
 ****
 34  35 0
 6-311+G(2d,p)
 ****
 1  2  14  15  16  17  18  19  20  21  22  24  25  26 0
 3-21G
 ****
 31  33  36  37  38  39  40  41  42  43  44  45  46 0
 3-21G
 ****


