%nproc=1
%NoSave
%Mem=1900MB
#P OB98/GEN NMR

erre ene a

0 1
  C     -606.902     355.560    -753.036
  O     -607.509     354.640    -753.917
  H     -606.025     355.986    -753.530
  H     -606.577     355.044    -752.125
  H     -607.583     356.372    -752.772
  P     -608.984     354.110    -753.578
  C     -610.347     354.861    -755.636
  O     -610.017     355.113    -754.277
  C     -609.381     355.592    -756.577
  O     -608.054     355.018    -756.439
  C     -609.796     355.436    -758.047
  O     -609.368     356.531    -758.847
  C     -609.028     354.191    -758.469
  O     -608.824     354.111    -759.883
  C     -607.738     354.338    -757.666
  N     -605.193     350.330    -759.528
  C     -605.864     351.330    -760.211
  N     -605.849     351.254    -761.556
  N     -606.513     352.301    -759.611
  C     -606.500     352.213    -758.260
  C     -605.890     351.257    -757.477
  C     -605.151     350.209    -758.150
  O     -604.564     349.277    -757.596
  N     -606.114     351.491    -756.141
  C     -606.847     352.576    -756.116
  N     -607.095     353.072    -757.381
  O     -609.162     354.453    -752.023
  O     -609.228     352.657    -753.846
  H     -608.150     353.419    -760.036
  H     -609.849     353.886    -751.625
  H     -604.691     349.618    -760.032
  H     -607.219     353.056    -755.222
  H     -607.012     354.957    -758.220
  H     -609.613     353.311    -758.176
  H     -605.537     350.427    -762.036
  H     -610.863     355.294    -758.169
  H     -606.576     351.784    -762.050
  H     -609.299     356.643    -756.280
  H     -611.370     355.212    -755.784
  H     -610.337     353.787    -755.834
  P     -610.114     357.941    -758.677
  C     -608.157     359.579    -757.973
  O     -609.322     358.849    -757.629
  O     -611.464     357.560    -757.899
  O     -610.395     358.652    -759.959
  H     -612.244     357.737    -758.464
  H     -607.803     360.110    -757.115
  H     -608.389     360.275    -758.752
  H     -607.400     358.903    -758.312

 6  7  8  9  10  11  12  13  14  15  26  29  33  34 0
 6-311+G(2d,p)
 ****
 36  38  39  40  41 0
 6-311+G(2d,p)
 ****
 1  2  3  4  5  16  17  18  19  20  21  22  23  24  25 0
 3-21G
 ****
 27  28  30  31  32  35  37  42  43  44  45  46  47 0
 3-21G
 ****
 48  49 0
 3-21G
 ****


