%nproc=1
%NoSave
%Mem=1900MB
#P OB98/GEN NMR

erre ene a

0 1
  C      395.734     634.412     109.859
  O      395.608     633.060     110.253
  H      396.700     634.542     109.368
  H      395.689     635.060     110.736
  H      394.940     634.679     109.154
  P      394.175     632.607     110.828
  C      393.062     632.881     113.195
  O      394.059     633.296     112.275
  C      392.911     633.908     114.317
  O      394.122     633.913     115.111
  C      392.669     635.340     113.824
  O      391.758     635.979     114.717
  C      394.042     635.984     113.922
  O      393.948     637.407     114.031
  C      394.628     635.262     115.143
  N      396.092     635.284     115.146
  C      396.703     636.421     115.677
  O      396.019     637.362     116.090
  N      398.076     636.494     115.685
  C      398.777     635.540     115.148
  N      400.126     635.682     115.166
  C      398.173     634.350     114.533
  C      396.838     634.278     114.577
  O      394.431     631.062     111.161
  O      393.033     632.865     109.903
  H      393.581     637.752     113.189
  H      395.298     630.888     111.567
  H      398.794     633.589     114.077
  H      396.312     633.426     114.145
  H      394.276     635.731     116.073
  H      394.630     635.756     113.023
  H      392.277     635.382     112.801
  H      392.102     633.579     114.985
  H      400.503     636.532     115.579
  H      393.322     631.906     113.621
  H      400.766     635.033     114.733
  H      392.121     632.773     112.646
  P      390.569     636.867     114.113
  C      389.768     639.326     114.181
  O      390.715     638.374     114.660
  O      389.190     636.283     114.232
  O      390.979     637.029     112.570
  H      390.162     636.976     112.029
  H      389.972     640.282     114.616
  H      388.781     639.014     114.451
  H      389.841     639.396     113.116

 6  7  8  9  10  11  12  13  14  15  16  26  30  31  32  33  35 0
 6-311+G(2d,p)
 ****
 37  38 0
 6-311+G(2d,p)
 ****
 1  2  3  4  5  17  18  19  20  21  22  23  24  25 0
 3-21G
 ****
 27  28  29  34  36  39  40  41  42  43  44  45  46 0
 3-21G
 ****


