%nproc=1
%NoSave
%Mem=1900MB
#P OB98/GEN NMR

erre ene a

0 1
  C       69.177    -664.679    -899.390
  O       69.099    -664.337    -898.020
  H       70.209    -664.976    -899.610
  H       68.919    -663.814    -900.000
  H       68.508    -665.514    -899.620
  P       67.643    -663.954    -897.450
  C       67.752    -665.655    -895.500
  O       67.088    -665.265    -896.690
  C       66.760    -666.339    -894.550
  O       65.682    -665.402    -894.220
  C       66.095    -667.607    -895.130
  O       65.904    -668.538    -894.060
  C       64.735    -667.105    -895.570
  O       63.767    -668.148    -895.690
  C       64.439    -666.100    -894.450
  N       59.464    -665.383    -894.280
  C       60.241    -666.403    -893.780
  N       59.590    -667.388    -893.120
  N       61.539    -666.457    -893.900
  C       62.054    -665.389    -894.550
  C       61.403    -664.312    -895.100
  C       59.955    -664.285    -894.980
  O       59.214    -663.418    -895.430
  N       62.281    -663.454    -895.690
  C       63.466    -663.990    -895.510
  N       63.388    -665.169    -894.810
  O       66.755    -663.883    -898.780
  O       67.578    -662.682    -896.660
  H       64.142    -668.827    -896.280
  H       66.723    -662.965    -899.120
  H       58.469    -665.395    -894.180
  H       64.415    -663.585    -895.850
  H       64.137    -666.587    -893.530
  H       64.814    -666.604    -896.540
  H       58.597    -667.401    -892.950
  H       66.661    -668.086    -895.930
  H       60.151    -668.136    -892.710
  H       67.274    -666.561    -893.610
  H       68.153    -664.770    -895.000
  H       68.571    -666.335    -895.740
  P       65.771    -670.095    -894.430
  C       67.558    -670.970    -892.750
  O       67.169    -670.798    -894.110
  O       65.742    -670.075    -896.040
  O       64.564    -670.755    -893.860
  H       65.250    -670.850    -896.360
  H       68.512    -671.453    -892.710
  H       66.832    -671.572    -892.245
  H       67.622    -670.014    -892.274

 6  7  8  9  10  11  12  13  14  15  26  29  33  34 0
 6-311+G(2d,p)
 ****
 36  38  39  40  41 0
 6-311+G(2d,p)
 ****
 1  2  3  4  5  16  17  18  19  20  21  22  23  24  25 0
 3-21G
 ****
 27  28  30  31  32  35  37  42  43  44  45  46  47 0
 3-21G
 ****
 48  49 0
 3-21G
 ****


