%nproc=1
%NoSave
%Mem=1900MB
#P OB98/GEN NMR

erre ene a

0 1
  C     -134.669     -28.039       9.205
  O     -133.644     -29.021       9.064
  P     -132.127     -28.587       9.349
  C     -132.062     -30.248      11.323
  O     -131.775     -28.926      10.877
  C     -131.256     -30.578      12.594
  O     -129.848     -30.628      12.255
  C     -131.376     -29.544      13.719
  O     -132.430     -29.696      14.667
  C     -130.071     -29.778      14.475
  O     -130.223     -30.887      15.384
  C     -129.077     -30.148      13.377
  N     -125.092     -27.219      14.679
  C     -125.684     -28.264      15.301
  N     -126.743     -28.989      14.885
  C     -127.183     -28.553      13.693
  C     -126.676     -27.503      12.944
  C     -125.577     -26.816      13.485
  N     -124.979     -25.746      12.863
  N     -127.394     -27.345      11.779
  C     -128.333     -28.271      11.834
  N     -128.238     -29.036      12.963
  O     -131.743     -27.220       8.890
  O     -131.296     -29.706       8.556
  H     -130.693     -30.541      16.163
  H     -130.508     -29.292       8.154
  H     -125.256     -28.556      16.255
  H     -129.096     -28.425      11.082
  H     -128.404     -30.960      13.680
  H     -129.780     -28.914      15.082
  H     -131.395     -28.528      13.316
  H     -131.555     -31.568      12.960
  H     -131.812     -30.964      10.537
  H     -124.224     -25.279      13.339
  H     -125.366     -25.393      11.998
  H     -133.138     -30.313      11.480
  P     -133.659     -28.677      14.723
  C     -135.521     -30.516      14.783
  O     -134.899     -29.461      14.079
  O     -133.396     -27.338      14.128
  O     -134.021     -28.652      16.281
  H     -134.393     -29.480      16.620
  H     -136.457     -30.766      14.281
  H     -135.737     -30.224      15.813
  H     -134.869     -31.396      14.775
  H     -135.618     -28.480       8.982
  H     -134.484     -27.231       8.529
  H     -134.674     -27.670      10.209

 3  4  5  6  7  8  9  10  11  12  22  25  29  30  31  32 0
 6-311+G(2d,p)
 ****
 33  36  37 0
 6-311+G(2d,p)
 ****
 1  2  13  14  15  16  17  18  19  20  21  23  24  26 0
 3-21G
 ****
 27  28  34  35  38  39  40  41  42  43  44  45  46  47  48 0
 3-21G
 ****


