%nproc=1
%NoSave
%Mem=1900MB
#P OB98/GEN NMR

erre ene a

0 1
  C       23.332     176.224      78.676
  O       23.978     177.479      78.606
  H       23.178     175.969      79.728
  H       23.946     175.447      78.214
  H       22.357     176.271      78.183
  P       24.421     178.028      77.168
  C       26.115     177.283      75.362
  O       25.675     177.144      76.705
  C       27.590     176.879      75.227
  O       28.406     177.826      75.974
  C       27.902     175.477      75.774
  O       29.000     174.956      75.014
  C       28.336     175.799      77.191
  O       28.985     174.707      77.794
  C       29.158     177.069      76.947
  N       29.394     177.826      78.166
  C       30.560     177.514      78.870
  O       31.316     176.632      78.462
  N       30.824     178.185      80.036
  C       29.967     179.043      80.495
  N       30.283     179.663      81.663
  C       28.696     179.359      79.811
  C       28.478     178.723      78.660
  O       24.625     179.504      77.071
  O       23.251     177.537      76.190
  H       29.159     174.884      78.746
  H       22.678     178.291      75.958
  H       28.006     180.068      80.244
  H       27.572     178.888      78.086
  H       30.128     176.824      76.494
  H       27.468     176.029      77.816
  H       27.049     174.797      75.720
  H       27.884     176.968      74.174
  H       31.159     179.408      82.103
  H       25.988     178.332      75.080
  H       29.685     180.332      82.124
  H       25.503     176.663      74.699
  P       28.825     173.819      73.898
  C       28.526     171.258      73.777
  O       28.829     172.380      74.602
  O       29.780     173.938      72.753
  O       27.316     173.973      73.381
  H       27.271     173.705      72.444
  H       28.562     170.364      74.364
  H       29.243     171.194      72.985
  H       27.546     171.374      73.363

 6  7  8  9  10  11  12  13  14  15  16  26  30  31  32  33  35 0
 6-311+G(2d,p)
 ****
 37  38 0
 6-311+G(2d,p)
 ****
 1  2  3  4  5  17  18  19  20  21  22  23  24  25 0
 3-21G
 ****
 27  28  29  34  36  39  40  41  42  43  44  45  46 0
 3-21G
 ****


