%nproc=1
%NoSave
%Mem=1900MB
#P OB98/GEN NMR

erre ene a

0 1
  C      170.580     194.024      -1.407
  O      171.868     193.685      -0.935
  H      169.908     194.119      -0.549
  H      170.193     193.244      -2.067
  H      170.608     194.980      -1.936
  P      173.025     193.408      -2.006
  C      173.945     195.770      -1.488
  O      173.544     194.844      -2.492
  C      174.716     196.933      -2.108
  O      175.849     196.443      -2.852
  C      173.903     197.766      -3.092
  O      172.996     198.604      -2.405
  C      175.017     198.480      -3.838
  O      175.529     199.580      -3.070
  C      176.075     197.355      -3.953
  N      176.036     196.647      -5.228
  C      176.311     197.414      -6.366
  O      176.552     198.616      -6.261
  N      176.286     196.797      -7.592
  C      176.054     195.525      -7.675
  N      176.048     194.974      -8.918
  C      175.794     194.675      -6.498
  C      175.789     195.296      -5.320
  O      172.684     192.464      -3.118
  O      174.245     192.863      -1.124
  H      176.243     199.977      -3.607
  H      174.239     191.888      -1.098
  H      175.615     193.616      -6.612
  H      175.606     194.743      -4.404
  H      177.085     197.765      -3.822
  H      174.683     198.885      -4.793
  H      173.378     197.113      -3.798
  H      175.102     197.556      -1.291
  H      176.252     195.594      -9.695
  H      174.584     195.225      -0.786
  H      176.041     193.980      -9.088
  H      173.074     196.146      -0.940
  P      171.715     199.232      -3.137
  C      170.223     197.589      -1.839
  O      170.594     198.082      -3.117
  O      171.980     199.830      -4.476
  O      171.150     200.282      -2.070
  H      171.701     201.105      -2.072
  H      169.475     196.833      -1.952
  H      169.833     198.391      -1.247
  H      171.081     197.172      -1.355

 6  7  8  9  10  11  12  13  14  15  16  26  30  31  32  33  35 0
 6-311+G(2d,p)
 ****
 37  38 0
 6-311+G(2d,p)
 ****
 1  2  3  4  5  17  18  19  20  21  22  23  24  25 0
 3-21G
 ****
 27  28  29  34  36  39  40  41  42  43  44  45  46 0
 3-21G
 ****


