%nproc=1
%NoSave
%Mem=1900MB
#P OB98/GEN NMR

erre ene a

0 1
  C      -15.070     103.414     108.247
  O      -15.882     103.624     109.384
  H      -15.651     102.874     107.494
  H      -14.197     102.813     108.512
  H      -14.750     104.373     107.828
  P      -15.199     104.354     110.638
  C      -15.703     102.532     112.421
  O      -15.979     103.844     111.946
  C      -16.891     102.024     113.240
  O      -16.950     102.722     114.503
  C      -18.249     102.267     112.584
  O      -18.525     101.326     111.567
  C      -19.172     102.133     113.780
  O      -19.496     100.760     114.046
  C      -18.329     102.740     114.924
  N      -18.776     104.083     115.291
  C      -20.131     104.211     115.570
  O      -20.926     103.272     115.519
  N      -20.563     105.476     115.876
  C      -19.789     106.601     115.892
  O      -20.248     107.720     116.100
  C      -18.359     106.400     115.597
  C      -17.925     105.177     115.302
  O      -15.675     105.871     110.478
  O      -13.714     104.231     110.708
  H      -14.949     106.413     110.117
  H      -20.150     100.768     114.771
  H      -21.544     105.589     116.072
  H      -17.720     107.274     115.606
  H      -16.882     105.000     115.066
  H      -18.394     102.108     115.821
  H      -20.119     102.652     113.617
  H      -18.302     103.296     112.201
  H      -16.747     100.954     113.437
  H      -14.816     102.552     113.057
  H      -15.515     101.873     111.567
  P      -19.352     101.807     110.278
  C      -21.801     100.904     110.609
  O      -20.512     100.721     110.043
  O      -18.300     101.509     109.108
  O      -19.824     103.221     110.358
  H      -17.769     100.709     109.262
  H      -22.429     100.080     110.341
  H      -22.228     101.812     110.238
  H      -21.718     100.958     111.674

 6  7  8  9  10  11  12  13  14  15  16  27  31  32  33  34  35 0
 6-311+G(2d,p)
 ****
 36  37 0
 6-311+G(2d,p)
 ****
 1  2  3  4  5  17  18  19  20  21  22  23  24  25 0
 3-21G
 ****
 26  28  29  30  38  39  40  41  42  43  44  45 0
 3-21G
 ****


