%nproc=1
%NoSave
%Mem=1900MB
#P OB98/GEN NMR

erre ene a

0 1
  C     -357.234     361.552     206.647
  O     -356.476     362.652     206.138
  P     -356.814     363.228     204.683
  C     -356.332     365.687     205.295
  O     -355.997     364.591     204.456
  C     -355.384     366.874     205.063
  O     -354.083     366.584     205.652
  C     -355.163     367.184     203.574
  O     -355.372     368.560     203.252
  C     -353.773     366.640     203.296
  O     -353.154     367.253     202.176
  C     -353.070     366.795     204.648
  N     -351.943     365.869     204.793
  C     -350.812     366.139     204.035
  O     -350.749     367.055     203.218
  N     -349.757     365.282     204.201
  C     -349.756     364.159     204.976
  O     -348.806     363.390     205.050
  C     -351.009     363.882     205.705
  C     -352.027     364.740     205.579
  O     -358.263     363.296     204.329
  O     -356.046     362.206     203.705
  H     -353.687     367.044     201.374
  H     -356.609     362.060     202.924
  H     -348.922     365.473     203.672
  H     -351.053     362.989     206.307
  H     -352.963     364.560     206.095
  H     -352.672     367.809     204.768
  H     -353.862     365.570     203.064
  H     -355.892     366.656     202.946
  H     -355.810     367.740     205.576
  H     -356.260     365.381     206.342
  H     -357.378     365.967     205.127
  P     -356.361     369.089     202.118
  C     -357.072     371.292     203.294
  O     -356.411     370.687     202.196
  O     -357.699     368.424     202.060
  O     -355.550     368.812     200.768
  H     -356.162     368.489     200.086
  H     -357.337     372.314     203.027
  H     -356.390     371.318     204.156
  H     -357.983     370.745     203.565
  H     -356.880     361.296     207.624
  H     -357.123     360.710     205.996
  H     -358.267     361.826     206.703

 3  4  5  6  7  8  9  10  11  12  13  23  28  29  30  31  32 0
 6-311+G(2d,p)
 ****
 33  34 0
 6-311+G(2d,p)
 ****
 1  2  14  15  16  17  18  19  20  21  22  24  25  26  27 0
 3-21G
 ****
 35  36  37  38  39  40  41  42  43  44  45 0
 3-21G
 ****


