%nproc=1
%NoSave
%Mem=1900MB
#P OB98/GEN NMR

erre ene a

0 1
  C     -246.903     246.058     -24.519
  O     -247.141     245.214     -23.416
  P     -247.324     245.737     -21.919
  C     -244.755     245.763     -21.413
  O     -245.978     246.491     -21.474
  C     -244.034     246.003     -20.079
  O     -243.743     247.422     -19.958
  C     -244.931     245.629     -18.883
  O     -244.251     244.945     -17.837
  C     -245.599     246.957     -18.531
  O     -246.119     246.995     -17.207
  C     -244.485     247.949     -18.847
  N     -246.181     252.415     -17.083
  C     -245.595     251.368     -16.390
  N     -245.627     251.461     -15.046
  N     -245.060     250.328     -16.972
  C     -245.197     250.327     -18.318
  C     -245.760     251.302     -19.115
  C     -246.320     252.461     -18.466
  O     -246.959     253.354     -19.025
  N     -245.791     250.924     -20.436
  C     -245.284     249.710     -20.435
  N     -244.934     249.294     -19.176
  O     -247.951     244.794     -20.948
  O     -248.345     246.975     -22.125
  H     -246.589     247.838     -17.101
  H     -248.914     247.012     -21.333
  H     -246.653     253.158     -16.571
  H     -245.162     249.082     -21.313
  H     -243.798     248.063     -18.000
  H     -246.444     247.084     -19.203
  H     -246.162     252.175     -14.564
  H     -245.700     244.916     -19.184
  H     -245.431     250.614     -14.523
  H     -243.085     245.458     -20.080
  H     -244.133     246.125     -22.242
  H     -244.935     244.694     -21.574
  P     -244.724     243.673     -16.990
  C     -245.794     244.982     -15.053
  O     -246.006     244.081     -16.131
  O     -243.595     243.481     -15.874
  O     -244.883     242.421     -17.785
  H     -243.425     242.519     -15.750
  H     -246.664     244.970     -14.400
  H     -245.667     245.996     -15.455
  H     -244.908     244.702     -14.482
  H     -246.818     245.468     -25.408
  H     -245.994     246.601     -24.363
  H     -247.716     246.746     -24.624

 3  4  5  6  7  8  9  10  11  12  23  26  30  31 0
 6-311+G(2d,p)
 ****
 33  35  36  37  38 0
 6-311+G(2d,p)
 ****
 1  2  13  14  15  16  17  18  19  20  21  22  24  25 0
 3-21G
 ****
 27  28  29  32  34  39  40  41  42  43  44  45  46  47  48  49 0
 3-21G
 ****


