%nproc=1
%NoSave
%Mem=1900MB
#P OB98/GEN NMR

erre ene a

0 1
  C      712.730      89.630     913.164
  O      711.588      90.122     913.841
  H      712.511      89.599     912.090
  H      712.970      88.623     913.500
  H      713.581      90.300     913.320
  P      711.609      90.169     915.439
  C      711.594      92.717     915.050
  O      712.062      91.646     915.857
  C      710.770      93.712     915.891
  O      709.605      93.025     916.414
  C      711.540      94.283     917.093
  O      711.029      95.605     917.345
  C      711.120      93.332     918.204
  O      711.443      93.845     919.469
  C      709.644      93.136     917.851
  N      709.058      91.972     918.515
  C      707.821      91.548     918.034
  O      707.270      92.152     917.105
  N      707.211      90.479     918.629
  C      707.770      89.913     919.661
  N      707.115      88.861     920.224
  C      709.051      90.370     920.236
  C      709.646      91.403     919.616
  O      712.376      89.071     916.105
  O      710.063      90.127     915.848
  H      711.214      94.800     919.526
  H      709.829      89.239     916.182
  H      709.467      89.891     921.117
  H      710.581      91.810     919.965
  H      709.053      94.029     918.130
  H      711.668      92.375     918.104
  H      712.621      94.336     916.933
  H      710.403      94.517     915.237
  H      706.230      88.586     919.797
  H      710.964      92.298     914.258
  H      707.438      88.367     921.033
  H      712.437      93.245     914.582
  P      711.843      96.934     917.026
  C      709.962      98.241     915.825
  O      711.238      97.629     915.707
  O      713.336      96.749     916.978
  O      711.446      97.971     918.184
  H      712.205      98.555     918.349
  H      709.680      98.662     914.883
  H      710.004      99.015     916.563
  H      709.240      97.508     916.119

 6  7  8  9  10  11  12  13  14  15  16  26  30  31  32  33  35 0
 6-311+G(2d,p)
 ****
 37  38 0
 6-311+G(2d,p)
 ****
 1  2  3  4  5  17  18  19  20  21  22  23  24  25 0
 3-21G
 ****
 27  28  29  34  36  39  40  41  42  43  44  45  46 0
 3-21G
 ****


