%nproc=1
%NoSave
%Mem=1900MB
#P OB98/GEN NMR

erre ene a

0 1
  C       -6.141     -83.708     366.949
  O       -5.525     -83.328     368.161
  H       -6.621     -82.830     366.512
  H       -6.904     -84.469     367.129
  H       -5.396     -84.085     366.242
  P       -4.796     -84.452     369.041
  C       -6.806     -85.288     370.428
  O       -5.897     -85.571     369.367
  C       -7.169     -86.579     371.171
  O       -8.124     -86.236     372.210
  C       -7.815     -87.624     370.252
  O       -7.173     -88.899     370.322
  C       -9.291     -87.548     370.617
  O      -10.016     -88.738     370.374
  C       -9.267     -87.103     372.083
  N      -10.481     -86.417     372.511
  C      -11.421     -87.161     373.221
  O      -11.302     -88.345     373.522
  N      -12.553     -86.482     373.597
  C      -12.837     -85.174     373.328
  O      -13.863     -84.620     373.695
  C      -11.818     -84.447     372.554
  C      -10.707     -85.093     372.185
  O       -4.041     -83.953     370.227
  O       -3.830     -85.193     368.000
  H      -10.919     -88.604     370.732
  H       -2.906     -84.917     368.159
  H      -13.232     -87.005     374.123
  H      -12.015     -83.409     372.310
  H       -9.933     -84.585     371.614
  H       -9.120     -87.959     372.743
  H       -9.755     -86.758     370.012
  H       -7.694     -87.344     369.198
  H       -6.273     -86.968     371.665
  H       -7.703     -84.836     369.991
  H       -6.351     -84.575     371.123
  P       -5.977     -89.377     369.381
  C       -7.190     -90.561     367.369
  O       -6.503     -89.422     367.873
  O       -5.203     -90.562     369.862
  O       -4.971     -88.117     369.370
  H       -4.069     -88.481     369.281
  H       -7.456     -90.393     366.346
  H       -8.076     -90.727     367.946
  H       -6.555     -91.419     367.436

 6  7  8  9  10  11  12  13  14  15  16  26  31  32  33  34  35 0
 6-311+G(2d,p)
 ****
 36  37 0
 6-311+G(2d,p)
 ****
 1  2  3  4  5  17  18  19  20  21  22  23  24  25 0
 3-21G
 ****
 27  28  29  30  38  39  40  41  42  43  44  45 0
 3-21G
 ****


