%nproc=1
%NoSave
%Mem=1900MB
#P OB98/GEN NMR

erre ene a

0 1
  C     -901.309     765.162     431.943
  O     -900.967     763.869     431.424
  P     -901.449     763.482     429.954
  C     -902.321     761.080     430.442
  O     -901.330     761.886     429.768
  C     -902.423     759.709     429.778
  O     -902.870     759.848     428.393
  C     -901.089     758.981     429.664
  O     -900.527     758.513     430.882
  C     -901.359     757.967     428.599
  O     -902.013     756.812     429.097
  C     -902.310     758.735     427.645
  N     -901.648     759.223     426.412
  C     -901.733     758.380     425.324
  O     -902.319     757.307     425.318
  N     -901.109     758.840     424.173
  C     -900.385     759.973     424.056
  O     -899.822     760.335     423.033
  C     -900.306     760.811     425.274
  C     -900.902     760.389     426.400
  O     -900.847     764.287     428.826
  O     -903.016     763.707     429.994
  H     -902.396     756.346     428.335
  H     -903.302     764.120     429.159
  H     -901.178     758.257     423.345
  H     -899.727     761.729     425.221
  H     -900.861     760.983     427.297
  H     -903.151     758.105     427.329
  H     -900.428     757.623     428.118
  H     -900.357     759.701     429.249
  H     -903.172     759.111     430.300
  H     -903.292     761.599     430.414
  H     -902.048     760.983     431.503
  P     -899.449     759.343     431.729
  C     -897.502     757.740     431.142
  O     -898.284     758.352     432.164
  O     -899.960     760.275     432.778
  O     -898.741     760.213     430.567
  H     -898.467     761.076     430.948
  H     -896.750     757.082     431.608
  H     -896.955     758.521     430.563
  H     -898.132     757.136     430.482
  H     -900.915     765.265     432.932
  H     -902.374     765.265     431.971
  H     -900.894     765.921     431.313

 3  4  5  6  7  8  9  10  11  12  13  23  28  29  30  31  32 0
 6-311+G(2d,p)
 ****
 33  34 0
 6-311+G(2d,p)
 ****
 1  2  14  15  16  17  18  19  20  21  22  24  25  26  27 0
 3-21G
 ****
 35  36  37  38  39  40  41  42  43  44  45 0
 3-21G
 ****


