%nproc=1
%NoSave
%Mem=1900MB
#P OB98/GEN NMR

erre ene a

0 1
  C      -52.089      91.004    -385.131
  O      -52.407      91.143    -386.513
  P      -52.365      89.820    -387.423
  C      -49.961      89.585    -388.386
  O      -50.855      89.274    -387.321
  C      -49.391      88.302    -388.993
  O      -48.422      87.719    -388.105
  C      -50.422      87.212    -389.251
  O      -51.127      87.418    -390.477
  C      -49.525      85.989    -389.354
  O      -48.912      85.938    -390.659
  C      -48.471      86.278    -388.278
  N      -46.787      82.909    -384.818
  C      -46.308      83.270    -386.029
  N      -46.816      84.167    -386.895
  C      -47.969      84.683    -386.422
  C      -48.596      84.383    -385.225
  C      -47.958      83.452    -384.394
  N      -48.437      83.096    -383.149
  N      -49.759      85.111    -385.091
  C      -49.824      85.851    -386.182
  N      -48.759      85.637    -387.009
  O      -52.446      90.405    -388.916
  O      -53.445      88.829    -387.144
  H      -48.221      86.632    -390.674
  H      -52.795      89.723    -389.519
  H      -45.386      82.779    -386.327
  H      -50.615      86.550    -386.402
  H      -47.464      85.957    -388.590
  H      -50.073      85.052    -389.226
  H      -51.108      87.101    -388.397
  H      -48.870      88.577    -389.924
  H      -49.141      90.190    -387.997
  H      -47.825      82.568    -382.542
  H      -49.184      83.650    -382.759
  H      -50.495      90.162    -389.147
  P      -52.560      86.703    -390.602
  C      -51.682      84.379    -391.386
  O      -52.285      85.145    -390.357
  O      -52.869      86.806    -392.173
  O      -53.632      87.327    -389.771
  H      -53.829      86.781    -392.335
  H      -51.291      83.460    -390.958
  H      -50.855      84.933    -391.857
  H      -52.433      84.132    -392.143
  H      -52.157      91.958    -384.652
  H      -51.094      90.624    -385.030
  H      -52.778      90.325    -384.673

 3  4  5  6  7  8  9  10  11  12  22  25  29  30  31  32 0
 6-311+G(2d,p)
 ****
 33  36  37 0
 6-311+G(2d,p)
 ****
 1  2  13  14  15  16  17  18  19  20  21  23  24  26 0
 3-21G
 ****
 27  28  34  35  38  39  40  41  42  43  44  45  46  47  48 0
 3-21G
 ****


