%nproc=1
%NoSave
%Mem=1900MB
#P OB98/GEN NMR

erre ene a

0 1
  C      -51.933     637.129     179.825
  O      -50.665     636.648     180.245
  P      -49.843     635.610     179.348
  C      -51.418     633.639     180.085
  O      -50.109     634.141     179.910
  C      -51.377     632.111     180.024
  O      -50.974     631.674     178.706
  C      -50.385     631.532     181.031
  O      -51.048     631.172     182.240
  C      -49.808     630.343     180.291
  O      -50.696     629.210     180.376
  C      -49.767     630.872     178.837
  N      -48.617     631.711     178.434
  C      -47.323     631.266     178.680
  O      -47.062     630.183     179.203
  N      -46.318     632.134     178.336
  C      -46.488     633.351     177.735
  O      -45.619     634.209     177.653
  C      -47.845     633.634     177.257
  C      -48.831     632.830     177.640
  O      -48.325     635.902     179.767
  O      -50.052     635.733     177.871
  H      -50.207     628.431     180.048
  H      -47.891     636.475     179.110
  H      -45.385     631.879     178.642
  H      -48.000     634.520     176.652
  H      -49.849     633.044     177.330
  H      -49.833     630.051     178.116
  H      -48.863     630.022     180.731
  H      -49.581     632.243     181.228
  H      -52.385     631.716     180.208
  H      -52.075     634.038     179.312
  H      -51.814     633.966     181.052
  P      -50.625     631.872     183.613
  C      -48.623     630.313     183.976
  O      -49.887     630.721     184.453
  O      -51.707     632.598     184.330
  O      -49.433     632.853     183.170
  H      -49.787     633.768     183.053
  H      -48.156     629.667     184.725
  H      -47.975     631.175     183.800
  H      -48.744     629.739     183.050
  H      -52.317     637.808     180.557
  H      -52.608     636.306     179.713
  H      -51.830     637.635     178.888

 3  4  5  6  7  8  9  10  11  12  13  23  28  29  30  31  32 0
 6-311+G(2d,p)
 ****
 33  34 0
 6-311+G(2d,p)
 ****
 1  2  14  15  16  17  18  19  20  21  22  24  25  26  27 0
 3-21G
 ****
 35  36  37  38  39  40  41  42  43  44  45 0
 3-21G
 ****


