%nproc=1
%NoSave
%Mem=1900MB
#P OB98/GEN NMR

erre ene a

0 1
  C     -478.866    -491.128     318.220
  O     -479.551    -490.439     317.182
  P     -478.973    -490.412     315.686
  C     -480.417    -488.306     315.301
  O     -480.062    -489.599     314.840
  C     -481.406    -487.656     314.332
  O     -480.725    -487.314     313.110
  C     -482.572    -488.551     313.928
  O     -483.535    -488.631     314.962
  C     -483.031    -487.861     312.651
  O     -483.837    -486.714     312.962
  C     -481.694    -487.404     312.031
  N     -481.220    -488.296     310.979
  C     -481.544    -487.936     309.665
  O     -482.182    -486.908     309.428
  N     -481.101    -488.728     308.639
  C     -480.420    -489.803     308.892
  N     -479.947    -490.514     307.832
  C     -480.108    -490.251     310.263
  C     -480.528    -489.456     311.245
  O     -478.617    -491.747     315.130
  O     -477.749    -489.387     315.748
  H     -484.146    -486.347     312.109
  H     -476.889    -489.815     315.990
  H     -479.545    -491.159     310.427
  H     -480.317    -489.703     312.279
  H     -481.784    -486.391     311.625
  H     -483.616    -488.507     311.988
  H     -482.211    -489.561     313.692
  H     -481.778    -486.729     314.789
  H     -480.034    -490.082     306.920
  H     -479.510    -487.692     315.349
  H     -479.189    -491.177     307.936
  H     -480.844    -488.384     316.308
  P     -484.142    -490.077     315.304
  C     -486.624    -490.257     314.575
  O     -485.708    -489.843     315.570
  O     -483.531    -490.399     316.751
  O     -483.811    -491.135     314.302
  H     -482.779    -491.006     316.671
  H     -487.630    -490.248     314.999
  H     -486.395    -491.272     314.231
  H     -486.595    -489.557     313.731
  H     -479.411    -491.027     319.135
  H     -477.888    -490.712     318.339
  H     -478.784    -492.164     317.967

 3  4  5  6  7  8  9  10  11  12  13  23  27  28  29  30  32 0
 6-311+G(2d,p)
 ****
 34  35 0
 6-311+G(2d,p)
 ****
 1  2  14  15  16  17  18  19  20  21  22  24  25  26 0
 3-21G
 ****
 31  33  36  37  38  39  40  41  42  43  44  45  46 0
 3-21G
 ****


