%nproc=1
%NoSave
%Mem=1900MB
#P OB98/GEN NMR

erre ene a

0 1
  C      -95.817      84.874     -43.048
  O      -96.929      85.435     -43.716
  H      -95.530      83.952     -43.558
  H      -96.086      84.636     -42.016
  H      -94.972      85.565     -43.063
  P      -97.458      86.851     -43.179
  C      -95.374      88.344     -43.566
  O      -96.670      87.976     -44.014
  C      -95.218      89.863     -43.554
  O      -94.067      90.212     -42.728
  C      -94.993      90.486     -44.941
  O      -95.640      91.764     -44.962
  C      -93.491      90.717     -44.968
  O      -93.106      91.709     -45.916
  C      -93.250      91.105     -43.510
  N      -88.904      93.637     -43.432
  C      -90.169      94.037     -43.820
  N      -90.298      95.308     -44.255
  N      -91.216      93.258     -43.784
  C      -90.948      92.022     -43.296
  C      -89.744      91.503     -42.885
  C      -88.586      92.369     -42.955
  O      -87.438      92.066     -42.644
  N      -89.881      90.197     -42.483
  C      -91.164      89.931     -42.650
  N      -91.851      91.006     -43.141
  O      -96.806      86.938     -41.720
  O      -98.941      87.007     -43.139
  H      -93.709      91.641     -46.685
  H      -97.430      86.601     -41.050
  H      -88.129      94.273     -43.492
  H      -91.640      88.984     -42.436
  H      -93.564      92.134     -43.295
  H      -92.969      89.785     -45.218
  H      -89.546      95.979     -44.266
  H      -95.350      89.874     -45.774
  H      -91.225      95.633     -44.502
  H      -96.097      90.300     -43.068
  H      -94.628      87.912     -44.243
  H      -95.214      87.944     -42.559
  P      -96.680      92.061     -46.144
  C      -98.924      90.982     -45.394
  O      -98.145      92.163     -45.503
  O      -96.735      90.665     -46.928
  O      -96.284      93.184     -47.043
  H      -96.961      90.820     -47.863
  H      -99.868      91.217     -44.949
  H      -98.409      90.270     -44.783
  H      -99.082      90.568     -46.368

 6  7  8  9  10  11  12  13  14  15  26  29  33  34 0
 6-311+G(2d,p)
 ****
 36  38  39  40  41 0
 6-311+G(2d,p)
 ****
 1  2  3  4  5  16  17  18  19  20  21  22  23  24  25 0
 3-21G
 ****
 27  28  30  31  32  35  37  42  43  44  45  46  47 0
 3-21G
 ****
 48  49 0
 3-21G
 ****


