%nproc=1
%NoSave
%Mem=1900MB
#P OB98/GEN NMR

erre ene a

0 1
  C     -160.476    -761.893     -18.483
  O     -161.696    -761.252     -18.079
  P     -163.012    -762.160     -17.928
  C     -163.594    -763.999     -16.182
  O     -163.076    -762.695     -16.416
  C     -163.485    -764.351     -14.697
  O     -162.154    -764.081     -14.181
  C     -164.436    -763.571     -13.806
  O     -165.736    -764.157     -13.784
  C     -163.775    -763.739     -12.443
  O     -164.109    -765.026     -11.894
  C     -162.284    -763.669     -12.793
  N     -159.070    -760.831     -10.104
  C     -159.383    -762.172      -9.994
  N     -158.729    -762.867      -9.023
  N     -160.244    -762.785     -10.760
  C     -160.798    -761.970     -11.684
  C     -160.578    -760.631     -11.902
  C     -159.625    -759.967     -11.029
  O     -159.311    -758.770     -11.075
  N     -161.328    -760.147     -12.935
  C     -162.002    -761.197     -13.372
  N     -161.722    -762.328     -12.633
  O     -162.627    -763.478     -18.762
  O     -164.264    -761.524     -18.452
  H     -163.623    -765.105     -11.041
  H     -163.437    -763.893     -19.112
  H     -158.387    -760.409      -9.478
  H     -162.689    -761.192     -14.209
  H     -161.674    -764.343     -12.181
  H     -164.116    -762.989     -11.721
  H     -158.018    -762.475      -8.435
  H     -164.466    -762.504     -14.085
  H     -158.929    -763.860      -8.947
  H     -163.682    -765.426     -14.588
  H     -163.052    -764.734     -16.782
  H     -164.627    -764.031     -16.526
  P     -166.946    -763.308     -14.424
  C     -166.733    -762.161     -16.749
  O     -166.741    -763.375     -16.011
  O     -166.562    -761.798     -14.040
  O     -168.294    -763.684     -13.922
  H     -167.378    -761.264     -13.918
  H     -166.422    -762.386     -17.782
  H     -166.040    -761.440     -16.307
  H     -167.750    -761.729     -16.773
  H     -159.693    -761.166     -18.540
  H     -160.612    -762.346     -19.443
  H     -160.214    -762.644     -17.768

 3  4  5  6  7  8  9  10  11  12  23  26  30  31 0
 6-311+G(2d,p)
 ****
 33  35  36  37  38 0
 6-311+G(2d,p)
 ****
 1  2  13  14  15  16  17  18  19  20  21  22  24  25 0
 3-21G
 ****
 27  28  29  32  34  39  40  41  42  43  44  45  46  47  48  49 0
 3-21G
 ****


