%nproc=1
%NoSave
%Mem=1900MB
#P OB98/GEN NMR

erre ene a

0 1
  C      -78.761    -162.141      50.725
  O      -78.431    -160.907      50.121
  H      -78.829    -162.924      49.966
  H      -77.975    -162.407      51.437
  H      -79.710    -162.058      51.262
  P      -79.465    -160.355      49.024
  C      -79.437    -157.920      49.901
  O      -79.135    -158.794      48.823
  C      -78.222    -157.777      50.814
  O      -77.096    -157.350      50.003
  C      -78.407    -156.755      51.950
  O      -78.036    -157.331      53.208
  C      -77.425    -155.648      51.614
  O      -76.853    -155.044      52.769
  C      -76.385    -156.368      50.767
  N      -72.614    -152.942      50.580
  C      -72.862    -153.949      51.445
  N      -73.829    -154.887      51.385
  C      -74.570    -154.734      50.274
  C      -74.422    -153.772      49.289
  C      -73.399    -152.828      49.485
  N      -73.181    -151.768      48.632
  N      -75.376    -153.928      48.302
  C      -76.115    -154.942      48.705
  N      -75.675    -155.452      49.900
  O      -80.862    -160.349      49.809
  O      -79.540    -161.169      47.777
  H      -76.305    -154.298      52.466
  H      -81.482    -160.948      49.351
  H      -72.199    -154.006      52.305
  H      -76.998    -155.315      48.202
  H      -75.647    -156.893      51.388
  H      -77.945    -154.873      51.038
  H      -79.432    -156.376      52.012
  H      -77.971    -158.763      51.222
  H      -80.272    -158.328      50.481
  H      -72.504    -151.075      48.909
  H      -73.833    -151.616      47.876
  H      -79.731    -156.945      49.499
  P      -79.245    -157.727      54.192
  C      -77.782    -158.995      55.923
  O      -78.646    -157.894      55.674
  O      -79.602    -159.222      53.744
  O      -80.431    -156.828      54.080
  H      -80.545    -159.280      53.497
  H      -77.465    -158.976      56.945
  H      -76.927    -158.929      55.283
  H      -78.304    -159.909      55.729

 6  7  8  9  10  11  12  13  14  15  25  28  32  33  34  35 0
 6-311+G(2d,p)
 ****
 36  39  40 0
 6-311+G(2d,p)
 ****
 1  2  3  4  5  16  17  18  19  20  21  22  23  24 0
 3-21G
 ****
 26  27  29  30  31  37  38  41  42  43  44  45  46  47  48 0
 3-21G
 ****


