%nproc=1
%NoSave
%Mem=1900MB
#P OB98/GEN NMR

erre ene a

0 1
  C     1147.099    -862.252    -856.251
  O     1146.129    -863.005    -856.952
  P     1145.293    -864.106    -856.111
  C     1144.968    -865.312    -858.445
  O     1144.413    -864.907    -857.193
  C     1144.122    -866.392    -859.078
  O     1144.157    -867.607    -858.253
  C     1142.646    -866.077    -859.186
  O     1142.383    -865.173    -860.279
  C     1142.015    -867.449    -859.344
  O     1142.140    -867.908    -860.708
  C     1142.881    -868.295    -858.409
  N     1142.280    -868.551    -857.112
  C     1141.135    -869.358    -857.110
  O     1140.654    -869.824    -858.153
  N     1140.552    -869.552    -855.881
  C     1140.947    -869.015    -854.698
  O     1140.360    -869.216    -853.649
  C     1142.142    -868.149    -854.770
  C     1142.756    -867.941    -855.933
  O     1144.245    -863.181    -855.350
  O     1146.164    -864.963    -855.230
  H     1144.068    -862.354    -855.826
  H     1141.597    -867.289    -861.273
  H     1139.741    -870.153    -855.874
  H     1142.467    -867.693    -853.838
  H     1143.626    -867.326    -856.001
  H     1143.135    -869.256    -858.875
  H     1140.937    -867.468    -859.110
  H     1142.271    -865.607    -858.256
  H     1144.529    -866.649    -860.059
  H     1145.982    -865.691    -858.276
  H     1145.026    -864.435    -859.125
  P     1141.487    -863.870    -859.973
  C     1140.551    -863.420    -862.371
  O     1141.433    -863.037    -861.339
  O     1142.468    -863.019    -859.034
  O     1140.144    -864.200    -859.351
  H     1143.369    -863.029    -859.339
  H     1140.396    -862.561    -863.045
  H     1139.589    -863.743    -862.015
  H     1141.011    -864.233    -862.967
  H     1147.573    -861.567    -856.923
  H     1147.833    -862.912    -855.838
  H     1146.625    -861.707    -855.461

 3  4  5  6  7  8  9  10  11  12  13  24  28  29  30  31  32 0
 6-311+G(2d,p)
 ****
 33  34 0
 6-311+G(2d,p)
 ****
 1  2  14  15  16  17  18  19  20  21  22  23  25  26  27 0
 3-21G
 ****
 35  36  37  38  39  40  41  42  43  44  45 0
 3-21G
 ****


