%nproc=1
%NoSave
%Mem=1900MB
#P OB98/GEN NMR

erre ene a

0 1
  C     1155.821      89.393    -231.486
  O     1157.046      89.112    -230.832
  H     1155.260      88.454    -231.599
  H     1156.002      89.807    -232.475
  H     1155.225      90.088    -230.886
  P     1158.038      90.353    -230.599
  C     1159.275      90.129    -232.864
  O     1159.341      89.982    -231.453
  C     1160.651      89.916    -233.496
  O     1161.576      90.910    -233.007
  C     1161.272      88.562    -233.199
  O     1160.770      87.581    -234.086
  C     1162.746      88.852    -233.456
  O     1163.004      88.803    -234.875
  C     1162.894      90.302    -232.952
  N     1166.792      89.234    -229.770
  C     1166.499      88.789    -231.019
  N     1165.420      89.067    -231.777
  C     1164.594      89.919    -231.140
  C     1164.737      90.443    -229.863
  C     1165.918      90.079    -229.170
  N     1166.211      90.528    -227.906
  N     1163.682      91.270    -229.542
  C     1162.938      91.276    -230.626
  N     1163.424      90.442    -231.594
  O     1158.263      90.744    -229.176
  O     1157.334      91.474    -231.511
  H     1162.661      87.939    -235.192
  H     1157.018      91.082    -232.348
  H     1167.228      88.119    -231.450
  H     1162.047      91.886    -230.752
  H     1163.552      90.886    -233.607
  H     1163.416      88.126    -232.985
  H     1161.143      88.267    -232.146
  H     1160.543      90.075    -234.582
  H     1158.891      91.129    -233.121
  H     1166.957      90.068    -227.406
  H     1165.495      91.049    -227.397
  H     1158.557      89.389    -233.244
  P     1159.879      86.338    -233.567
  C     1161.459      85.211    -231.866
  O     1160.945      85.203    -233.196
  O     1158.773      85.957    -234.489
  O     1159.358      86.825    -232.130
  H     1158.593      86.263    -231.852
  H     1162.156      84.408    -231.748
  H     1160.654      85.089    -231.172
  H     1161.952      86.142    -231.680

 6  7  8  9  10  11  12  13  14  15  25  28  32  33  34  35 0
 6-311+G(2d,p)
 ****
 36  39  40 0
 6-311+G(2d,p)
 ****
 1  2  3  4  5  16  17  18  19  20  21  22  23  24 0
 3-21G
 ****
 26  27  29  30  31  37  38  41  42  43  44  45  46  47 0
 3-21G
 ****
 48 0
 3-21G
 ****


