%nproc=1
%NoSave
%Mem=1900MB
#P OB98/GEN NMR

erre ene a

0 1
  C      109.960      -0.805     -87.990
  O      110.041      -2.189     -87.638
  P      111.398      -2.964     -87.995
  C      112.492      -3.005     -85.633
  O      111.896      -3.748     -86.691
  C      113.703      -3.757     -85.078
  O      114.568      -2.878     -84.336
  C      113.327      -4.861     -84.105
  O      112.866      -6.003     -84.800
  C      114.636      -5.083     -83.356
  O      115.454      -6.075     -83.998
  C      115.311      -3.694     -83.414
  N      115.409      -3.063     -82.109
  C      116.655      -3.148     -81.480
  O      117.583      -3.752     -82.021
  N      116.807      -2.571     -80.245
  C      115.798      -1.985     -79.679
  N      116.009      -1.436     -78.453
  C      114.460      -1.896     -80.298
  C      114.337      -2.453     -81.501
  O      112.466      -1.781     -88.146
  O      111.314      -3.790     -89.237
  H      114.875      -6.856     -84.118
  H      113.134      -2.012     -88.816
  H      113.648      -1.404     -79.784
  H      113.390      -2.436     -82.030
  H      116.326      -3.781     -83.823
  H      114.457      -5.435     -82.335
  H      112.559      -4.501     -83.409
  H      114.267      -4.178     -85.922
  H      116.937      -1.517     -78.058
  H      111.764      -2.833     -84.838
  H      115.294      -0.962     -77.921
  H      112.781      -2.020     -86.013
  P      111.996      -7.071     -83.984
  C      109.941      -5.552     -83.750
  O      110.471      -6.724     -84.338
  O      112.118      -6.525     -82.482
  O      112.394      -8.504     -84.092
  H      111.702      -7.152     -81.863
  H      108.986      -5.321     -84.229
  H      110.619      -4.707     -83.895
  H      109.769      -5.715     -82.683
  H      109.007      -0.417     -87.696
  H      110.077      -0.699     -89.048
  H      110.735      -0.264     -87.489

 3  4  5  6  7  8  9  10  11  12  13  21  23  27  28  29  30  32 0
 6-311+G(2d,p)
 ****
 34  35 0
 6-311+G(2d,p)
 ****
 1  2  14  15  16  17  18  19  20  22  24  25  26 0
 3-21G
 ****
 31  33  36  37  38  39  40  41  42  43  44  45  46 0
 3-21G
 ****


