%nproc=1
%NoSave
%Mem=1900MB
#P OB98/GEN NMR

erre ene a

0 1
  C      284.887    -118.961     383.363
  O      285.861    -117.944     383.541
  P      286.391    -117.180     382.233
  C      288.544    -118.633     382.219
  O      287.413    -118.174     381.493
  C      289.826    -118.457     381.404
  O      290.972    -118.659     382.281
  C      289.975    -119.431     380.223
  O      290.646    -118.720     379.180
  C      290.865    -120.512     380.813
  O      291.479    -121.349     379.848
  C      291.810    -119.656     381.653
  N      296.259    -120.218     384.112
  C      295.837    -119.295     383.211
  N      294.633    -119.210     382.603
  C      293.819    -120.196     383.021
  C      294.115    -121.207     383.915
  C      295.404    -121.198     384.472
  N      295.837    -122.143     385.385
  N      293.038    -122.055     384.076
  C      292.106    -121.561     383.288
  N      292.525    -120.425     382.647
  O      287.348    -116.051     382.836
  O      285.317    -116.603     381.362
  H      292.000    -122.043     380.297
  H      287.263    -115.214     382.340
  H      296.559    -118.533     382.938
  H      291.123    -121.990     383.139
  H      292.548    -119.138     381.033
  H      290.256    -121.161     381.457
  H      289.016    -119.801     379.846
  H      289.869    -117.422     381.045
  H      288.422    -119.696     382.440
  H      296.828    -122.163     385.570
  H      295.271    -122.972     385.487
  H      288.607    -118.097     383.173
  P      289.849    -118.393     377.824
  C      291.945    -119.050     376.487
  O      290.580    -119.311     376.721
  O      290.432    -116.944     377.470
  O      288.367    -118.467     377.905
  H      291.407    -116.935     377.492
  H      292.334    -119.799     375.795
  H      292.513    -119.103     377.424
  H      292.064    -118.058     376.034
  H      284.630    -119.379     384.314
  H      285.284    -119.728     382.732
  H      284.013    -118.542     382.909

 3  4  5  6  7  8  9  10  11  12  22  25  29  30  31  32 0
 6-311+G(2d,p)
 ****
 33  36  37 0
 6-311+G(2d,p)
 ****
 1  2  13  14  15  16  17  18  19  20  21  23  24  26 0
 3-21G
 ****
 27  28  34  35  38  39  40  41  42  43  44  45  46  47  48 0
 3-21G
 ****


