%nproc=1
%NoSave
%Mem=1900MB
#P OB98/GEN NMR

erre ene a

0 1
  C     -494.724    -241.006     483.443
  O     -495.998    -240.660     484.000
  P     -496.836    -239.507     483.259
  C     -496.324    -237.805     485.182
  O     -496.243    -238.114     483.799
  C     -495.151    -236.912     485.616
  O     -495.118    -235.710     484.786
  C     -495.197    -236.467     487.086
  O     -493.841    -236.458     487.556
  C     -495.741    -235.051     486.997
  O     -495.402    -234.283     488.149
  C     -495.081    -234.584     485.685
  N     -495.744    -233.413     485.110
  C     -495.181    -232.171     485.372
  O     -494.210    -232.024     486.114
  N     -495.792    -231.100     484.789
  C     -496.933    -231.137     484.046
  O     -497.443    -230.141     483.543
  C     -497.555    -232.468     483.898
  C     -496.945    -233.518     484.427
  O     -498.258    -239.636     483.977
  O     -496.858    -239.663     481.773
  H     -498.201    -239.857     484.922
  H     -495.587    -233.335     487.962
  H     -495.373    -230.187     484.932
  H     -498.499    -232.529     483.356
  H     -497.384    -234.512     484.352
  H     -494.027    -234.329     485.852
  H     -496.825    -235.072     486.899
  H     -495.804    -237.129     487.712
  H     -494.223    -237.470     485.422
  H     -496.301    -238.727     485.778
  H     -497.293    -237.310     485.391
  P     -493.515    -237.209     488.942
  C     -494.495    -235.392     490.565
  O     -494.583    -236.691     490.014
  O     -492.174    -236.425     489.373
  O     -493.313    -238.682     488.837
  H     -492.256    -235.464     489.292
  H     -495.428    -235.156     491.081
  H     -494.329    -234.649     489.778
  H     -493.664    -235.343     491.290
  H     -494.277    -241.781     484.030
  H     -494.088    -240.145     483.445
  H     -494.856    -241.350     482.438

 3  4  5  6  7  8  9  10  11  12  13  24  28  29  30  31  32 0
 6-311+G(2d,p)
 ****
 33  34 0
 6-311+G(2d,p)
 ****
 1  2  14  15  16  17  18  19  20  21  22  23  25  26  27 0
 3-21G
 ****
 35  36  37  38  39  40  41  42  43  44  45 0
 3-21G
 ****


