%nproc=1
%NoSave
%Mem=1900MB
#P OB98/GEN NMR

erre ene a

0 1
  C      730.123    -898.987     617.543
  O      729.961    -898.157     618.685
  P      731.101    -898.007     619.835
  C      731.513    -895.657     618.832
  O      732.113    -896.797     619.409
  C      732.514    -894.497     618.764
  O      732.774    -893.987     620.102
  C      733.871    -894.847     618.124
  O      734.273    -893.697     617.332
  C      734.761    -895.007     619.334
  O      736.140    -894.947     619.060
  C      734.231    -893.877     620.228
  N      734.632    -893.887     621.616
  C      735.223    -892.737     622.152
  O      735.446    -891.747     621.432
  N      735.593    -892.717     623.474
  C      735.427    -893.757     624.212
  N      735.784    -893.677     625.517
  C      734.802    -895.017     623.711
  C      734.463    -895.007     622.413
  O      731.791    -899.277     620.162
  O      730.345    -897.437     621.113
  H      730.732    -897.807     621.921
  H      736.635    -895.117     619.880
  H      734.647    -895.867     624.356
  H      733.983    -895.897     621.988
  H      734.545    -892.897     619.774
  H      734.568    -895.987     619.789
  H      733.842    -895.727     617.487
  H      732.038    -893.667     618.215
  H      736.175    -892.807     625.843
  H      730.665    -895.357     619.459
  H      735.662    -894.447     626.177
  H      731.137    -895.907     617.814
  P      733.906    -893.637     615.783
  C      731.959    -891.937     616.139
  O      732.353    -893.227     615.679
  O      733.831    -895.207     615.397
  O      734.862    -892.967     614.872
  H      734.007    -895.317     614.445
  H      731.283    -891.477     615.400
  H      732.797    -891.267     616.304
  H      731.420    -892.077     617.074
  H      729.248    -898.926     616.931
  H      730.269    -900.000     617.856
  H      730.974    -898.661     616.983

 3  4  5  6  7  8  9  10  11  12  13  24  27  28  29  30  32 0
 6-311+G(2d,p)
 ****
 34  35 0
 6-311+G(2d,p)
 ****
 1  2  14  15  16  17  18  19  20  21  22  23  25  26 0
 3-21G
 ****
 31  33  36  37  38  39  40  41  42  43  44  45  46 0
 3-21G
 ****


