%nproc=1
%NoSave
%Mem=1900MB
#P OB98/GEN NMR

erre ene a

0 1
  C      -56.039      30.105      95.450
  O      -55.878      31.059      94.422
  P      -57.071      31.536      93.473
  C      -57.599      33.579      91.957
  O      -56.649      32.932      92.796
  C      -57.148      34.978      91.511
  O      -57.010      35.830      92.666
  C      -55.764      34.904      90.860
  O      -55.635      34.550      89.498
  C      -55.070      36.202      91.255
  O      -55.135      37.192      90.228
  C      -55.850      36.659      92.490
  N      -51.505      37.961      94.754
  C      -52.040      38.424      93.567
  N      -51.222      39.182      92.806
  N      -53.251      38.145      93.161
  C      -53.913      37.296      93.984
  C      -53.493      36.785      95.190
  C      -52.169      37.134      95.645
  O      -51.627      36.678      96.649
  N      -54.401      35.900      95.712
  C      -55.353      35.843      94.804
  N      -55.083      36.642      93.720
  O      -58.458      31.392      94.011
  O      -56.924      30.504      92.239
  H      -54.678      36.839      89.443
  H      -57.822      30.320      91.903
  H      -50.534      38.145      94.976
  H      -56.237      35.218      94.867
  H      -56.216      37.685      92.357
  H      -54.006      36.029      91.449
  H      -50.240      39.295      93.016
  H      -55.209      34.118      91.390
  H      -51.516      39.396      91.859
  H      -57.906      35.453      90.881
  H      -58.541      33.636      92.511
  H      -57.783      32.964      91.073
  P      -54.293      34.094      88.758
  C      -53.743      33.237      86.411
  O      -54.694      33.246      87.460
  O      -53.663      32.985      89.727
  O      -53.307      35.189      88.511
  H      -52.706      32.905      89.556
  H      -54.229      32.903      85.490
  H      -52.934      32.542      86.657
  H      -53.325      34.236      86.250
  H      -55.102      29.952      95.944
  H      -56.376      29.181      95.029
  H      -56.761      30.460      96.156

 3  4  5  6  7  8  9  10  11  12  23  26  30  31 0
 6-311+G(2d,p)
 ****
 33  35  36  37  38 0
 6-311+G(2d,p)
 ****
 1  2  13  14  15  16  17  18  19  20  21  22  24  25 0
 3-21G
 ****
 27  28  29  32  34  39  40  41  42  43  44  45  46  47  48  49 0
 3-21G
 ****


