%nproc=1
%NoSave
%Mem=1900MB
#P OB98/GEN NMR

erre ene a

0 1
  C      365.910     667.157      26.183
  O      367.079     667.873      26.521
  H      365.862     667.057      25.092
  H      365.021     667.691      26.529
  H      365.941     666.156      26.627
  P      367.295     668.221      28.067
  C      365.789     669.266      29.914
  O      366.052     669.134      28.521
  C      364.658     670.271      30.125
  O      363.442     669.791      29.499
  C      364.303     670.505      31.588
  O      365.199     671.378      32.238
  C      362.910     671.105      31.441
  O      362.956     672.518      31.202
  C      362.339     670.350      30.228
  N      361.368     669.329      30.634
  C      360.134     669.804      31.093
  O      359.863     670.997      31.149
  N      359.242     668.860      31.500
  C      359.479     667.508      31.558
  O      358.650     666.710      32.002
  C      360.802     667.065      31.080
  C      361.678     667.982      30.652
  O      368.524     669.251      28.046
  O      367.568     667.041      28.945
  H      369.331     668.807      28.374
  H      363.259     672.926      32.035
  H      358.349     669.178      31.839
  H      361.008     665.999      31.116
  H      362.659     667.667      30.316
  H      361.829     671.042      29.552
  H      362.325     670.958      32.353
  H      364.218     669.541      32.113
  H      364.936     671.221      29.645
  H      366.684     669.637      30.422
  H      365.526     668.281      30.324
  P      365.376     671.222      33.828
  C      363.517     670.906      35.658
  O      363.942     671.537      34.458
  O      366.267     672.520      34.157
  O      365.991     669.920      34.220
  H      366.119     673.232      33.505
  H      362.536     671.248      35.912
  H      364.196     671.149      36.449
  H      363.500     669.846      35.517

 6  7  8  9  10  11  12  13  14  15  16  27  31  32  33  34  35 0
 6-311+G(2d,p)
 ****
 36  37 0
 6-311+G(2d,p)
 ****
 1  2  3  4  5  17  18  19  20  21  22  23  24  25 0
 3-21G
 ****
 26  28  29  30  38  39  40  41  42  43  44  45 0
 3-21G
 ****


