%nproc=1
%NoSave
%Mem=1900MB
#P OB98/GEN NMR

erre ene a

0 1
  C      893.493    -374.910     265.793
  O      894.174    -374.336     266.919
  P      895.028    -375.227     267.950
  C      897.548    -375.693     268.256
  O      896.489    -375.477     267.325
  C      898.863    -376.030     267.545
  O      898.776    -377.302     266.884
  C      899.290    -375.018     266.483
  O      899.867    -373.871     267.082
  C      900.243    -375.864     265.643
  O      901.549    -375.915     266.258
  C      899.573    -377.244     265.678
  N      899.658    -378.237     260.656
  C      900.644    -378.050     261.565
  N      900.545    -377.781     262.889
  C      899.249    -377.738     263.259
  C      898.139    -377.903     262.450
  C      898.376    -378.153     261.089
  N      897.360    -378.322     260.169
  N      896.974    -377.750     263.186
  C      897.389    -377.531     264.424
  N      898.757    -377.510     264.521
  O      894.331    -376.467     268.396
  O      895.314    -374.257     269.189
  H      901.436    -376.234     267.167
  H      895.415    -374.784     270.002
  H      901.659    -378.136     261.167
  H      896.734    -377.381     265.273
  H      900.316    -378.050     265.757
  H      900.381    -375.465     264.635
  H      898.426    -374.730     265.874
  H      899.641    -376.121     268.319
  H      897.262    -376.513     268.914
  H      897.605    -378.464     259.200
  H      896.403    -378.223     260.475
  H      897.664    -374.778     268.851
  P      899.227    -372.423     266.822
  C      897.667    -370.840     268.113
  O      898.161    -372.165     267.992
  O      898.731    -372.166     265.440
  O      900.416    -371.423     267.215
  H      900.325    -370.595     266.689
  H      898.408    -370.231     268.660
  H      896.739    -370.858     268.676
  H      897.478    -370.404     267.138
  H      892.992    -374.138     265.247
  H      892.776    -375.626     266.137
  H      894.203    -375.394     265.155

 3  4  5  6  7  8  9  10  11  12  22  25  29  30  31  32 0
 6-311+G(2d,p)
 ****
 33  36  37 0
 6-311+G(2d,p)
 ****
 1  2  13  14  15  16  17  18  19  20  21  23  24  26 0
 3-21G
 ****
 27  28  34  35  38  39  40  41  42  43  44  45  46  47  48 0
 3-21G
 ****


