%nproc=1
%NoSave
%Mem=1900MB
#P OB98/GEN NMR

erre ene a

0 1
  C       93.207      51.071    -110.037
  O       93.219      52.484    -110.009
  H       94.087      50.696    -110.566
  H       93.229      50.697    -109.010
  H       92.297      50.711    -110.526
  P       93.227      53.235    -111.427
  C       90.659      53.096    -111.821
  O       91.951      52.658    -112.215
  C       90.050      53.937    -112.939
  O       89.964      53.159    -114.155
  C       88.631      54.411    -112.649
  O       88.600      55.571    -111.835
  C       88.140      54.711    -114.054
  O       88.690      55.961    -114.506
  C       88.745      53.543    -114.849
  N       85.000      51.326    -117.546
  C       85.709      52.458    -117.748
  N       86.704      52.968    -116.994
  C       86.956      52.177    -115.940
  C       86.322      50.991    -115.607
  C       85.293      50.566    -116.464
  N       84.548      49.430    -116.245
  N       86.843      50.474    -114.437
  C       87.786      51.324    -114.083
  N       87.870      52.387    -114.942
  O       94.459      52.571    -112.204
  O       93.301      54.724    -111.378
  H       88.181      56.671    -114.070
  H       94.694      53.104    -112.987
  H       85.437      53.032    -118.628
  H       88.423      51.221    -113.214
  H       89.019      53.826    -115.872
  H       87.052      54.798    -114.112
  H       88.019      53.609    -112.220
  H       90.717      54.786    -113.134
  H       90.748      53.701    -110.913
  H       83.738      49.290    -116.829
  H       84.657      48.940    -115.369
  H       90.027      52.227    -111.617
  P       87.253      55.863    -111.011
  C       88.085      54.874    -108.758
  O       87.182      54.756    -109.851
  O       86.106      55.406    -112.028
  O       87.088      57.280    -110.570
  H       85.303      55.947    -111.913
  H       87.920      54.071    -108.071
  H       87.923      55.808    -108.261
  H       89.091      54.832    -109.120

 6  7  8  9  10  11  12  13  14  15  25  28  32  33  34  35 0
 6-311+G(2d,p)
 ****
 36  39  40 0
 6-311+G(2d,p)
 ****
 1  2  3  4  5  16  17  18  19  20  21  22  23  24 0
 3-21G
 ****
 26  27  29  30  31  37  38  41  42  43  44  45  46  47 0
 3-21G
 ****
 48 0
 3-21G
 ****


