%nproc=1
%NoSave
%Mem=1900MB
#P OB98/GEN NMR

erre ene a

0 1
  C      952.285     193.383     185.599
  O      952.860     194.674     185.585
  H      952.661     192.843     186.470
  H      952.582     192.840     184.698
  H      951.196     193.441     185.660
  P      952.221     195.746     184.578
  C      954.163     195.471     182.881
  O      952.764     195.391     183.105
  C      954.529     194.781     181.565
  O      955.893     195.143     181.221
  C      954.446     193.252     181.616
  O      953.930     192.777     180.370
  C      955.890     192.824     181.772
  O      956.128     191.496     181.283
  C      956.614     193.911     180.989
  N      961.364     194.151     179.315
  C      960.180     194.119     178.617
  N      960.251     194.139     177.269
  N      958.997     194.058     179.191
  C      959.063     194.082     180.546
  C      960.181     194.107     181.353
  C      961.472     194.144     180.704
  O      962.563     194.151     181.262
  N      959.832     194.085     182.676
  C      958.518     194.035     182.674
  N      958.000     194.045     181.409
  O      952.996     197.096     184.946
  O      950.744     195.921     184.681
  H      957.008     191.223     181.607
  H      952.367     197.752     185.308
  H      962.246     194.182     178.820
  H      957.886     193.995     183.553
  H      956.627     193.714     179.909
  H      956.179     192.847     182.832
  H      961.121     194.229     176.762
  H      953.818     192.888     182.433
  H      959.391     194.149     176.738
  H      953.886     195.187     180.771
  H      954.685     194.971     183.708
  H      954.465     196.521     182.848
  P      952.425     192.224     180.372
  C      953.034     189.740     180.774
  O      952.376     190.894     181.269
  O      952.231     191.668     178.879
  O      951.395     193.254     180.701
  H      951.655     192.265     178.373
  H      952.919     188.937     181.472
  H      954.075     189.952     180.643
  H      952.605     189.461     179.834

 6  7  8  9  10  11  12  13  14  15  26  29  33  34 0
 6-311+G(2d,p)
 ****
 36  38  39  40  41 0
 6-311+G(2d,p)
 ****
 1  2  3  4  5  16  17  18  19  20  21  22  23  24  25 0
 3-21G
 ****
 27  28  30  31  32  35  37  42  43  44  45  46  47 0
 3-21G
 ****
 48  49 0
 3-21G
 ****


