%nproc=1
%NoSave
%Mem=1900MB
#P OB98/GEN NMR

erre ene a

0 1
  C     -579.051    -146.621    -452.302
  O     -577.881    -147.413    -452.367
  H     -578.756    -145.566    -452.242
  H     -579.626    -146.871    -451.407
  H     -579.669    -146.761    -453.193
  P     -578.031    -148.985    -452.621
  C     -575.963    -149.117    -454.160
  O     -576.566    -149.547    -452.943
  C     -574.446    -149.106    -454.018
  O     -574.036    -147.998    -453.184
  C     -573.885    -150.352    -453.338
  O     -573.876    -151.461    -454.218
  C     -572.511    -149.854    -452.922
  O     -571.585    -149.915    -454.010
  C     -572.803    -148.385    -452.536
  N     -572.887    -148.208    -451.089
  C     -571.749    -147.701    -450.465
  O     -570.718    -147.413    -451.059
  N     -571.816    -147.615    -449.093
  C     -572.829    -148.093    -448.312
  O     -572.736    -148.210    -447.098
  C     -574.028    -148.549    -449.025
  C     -574.000    -148.599    -450.365
  O     -579.091    -149.382    -453.602
  O     -578.332    -149.579    -451.166
  H     -579.286    -149.772    -451.086
  H     -570.721    -149.658    -453.641
  H     -570.973    -147.288    -448.629
  H     -574.877    -148.868    -448.443
  H     -574.859    -148.964    -450.914
  H     -572.016    -147.724    -452.925
  H     -572.102    -150.446    -452.100
  H     -574.468    -150.581    -452.442
  H     -574.003    -148.969    -455.014
  H     -576.317    -148.106    -454.387
  H     -576.274    -149.784    -454.971
  P     -573.191    -152.839    -453.765
  C     -575.192    -154.305    -454.435
  O     -573.810    -154.028    -454.646
  O     -573.181    -153.094    -452.294
  O     -571.695    -152.727    -454.323
  H     -571.065    -152.945    -453.602
  H     -575.495    -155.110    -455.071
  H     -575.769    -153.434    -454.663
  H     -575.349    -154.579    -453.413

 6  7  8  9  10  11  12  13  14  15  16  27  31  32  33  34  35 0
 6-311+G(2d,p)
 ****
 36  37 0
 6-311+G(2d,p)
 ****
 1  2  3  4  5  17  18  19  20  21  22  23  24  25 0
 3-21G
 ****
 26  28  29  30  38  39  40  41  42  43  44  45 0
 3-21G
 ****


