%nproc=1
%NoSave
%Mem=1900MB
#P OB98/GEN NMR

erre ene a

0 1
  C      114.305    -684.788    -268.319
  O      113.938    -684.746    -269.682
  H      114.215    -685.818    -267.964
  H      113.645    -684.152    -267.721
  H      115.342    -684.467    -268.195
  P      113.877    -683.322    -270.414
  C      115.644    -681.444    -270.622
  O      115.395    -682.841    -270.611
  C      117.139    -681.153    -270.448
  O      117.582    -681.710    -269.178
  C      118.023    -681.771    -271.546
  O      119.167    -680.925    -271.701
  C      118.416    -683.090    -270.907
  O      119.494    -683.690    -271.585
  C      118.654    -682.636    -269.463
  N      118.674    -683.748    -268.527
  C      119.638    -684.735    -268.763
  O      120.400    -684.640    -269.724
  N      119.694    -685.817    -267.921
  C      118.823    -685.942    -266.969
  N      118.926    -687.045    -266.180
  C      117.752    -684.954    -266.722
  C      117.742    -683.887    -267.526
  O      112.976    -682.309    -269.785
  O      113.410    -683.671    -271.904
  H      119.775    -684.517    -271.135
  H      112.475    -683.425    -272.023
  H      117.036    -685.110    -265.931
  H      116.990    -683.111    -267.423
  H      119.596    -682.085    -269.375
  H      117.586    -683.800    -270.949
  H      117.502    -681.881    -272.499
  H      117.284    -680.068    -270.388
  H      119.668    -687.702    -266.393
  H      115.077    -681.001    -269.798
  H      118.290    -687.256    -265.425
  H      115.292    -681.004    -271.563
  P      119.132    -679.562    -272.548
  C      116.914    -678.261    -272.322
  O      118.216    -678.486    -271.791
  O      118.781    -679.751    -273.991
  O      120.609    -678.951    -272.410
  H      120.825    -678.452    -273.220
  H      116.409    -677.526    -271.730
  H      116.359    -679.176    -272.305
  H      116.995    -677.912    -273.330

 6  7  8  9  10  11  12  13  14  15  16  26  30  31  32  33  35 0
 6-311+G(2d,p)
 ****
 37  38 0
 6-311+G(2d,p)
 ****
 1  2  3  4  5  17  18  19  20  21  22  23  24  25 0
 3-21G
 ****
 27  28  29  34  36  39  40  41  42  43  44  45  46 0
 3-21G
 ****


