%nproc=1
%NoSave
%Mem=1900MB
#P OB98/GEN NMR

erre ene a

0 1
  C       30.951      97.878      57.149
  O       30.764      98.368      55.837
  H       30.259      98.394      57.818
  H       31.973      98.079      57.477
  H       30.750      96.805      57.188
  P       31.625      97.675      54.673
  C       34.140      97.046      54.607
  O       33.166      98.004      54.994
  C       35.535      97.487      55.044
  O       35.886      98.712      54.334
  C       35.664      97.776      56.548
  O       36.978      97.381      56.963
  C       35.585      99.293      56.609
  O       36.159      99.824      57.801
  C       36.334      99.654      55.327
  N       38.561     103.834      53.632
  C       39.086     102.586      53.904
  N       40.410     102.423      53.694
  N       38.375     101.583      54.346
  C       37.058     101.878      54.479
  C       36.417     103.071      54.249
  C       37.222     104.182      53.786
  O       36.818     105.315      53.546
  N       35.077     102.973      54.531
  C       34.911     101.725      54.928
  N       36.084     101.021      54.914
  O       31.299      98.593      53.403
  O       31.318      96.238      54.420
  H       36.089     100.800      57.759
  H       30.557      98.215      52.896
  H       39.156     104.576      53.307
  H       33.972     101.285      55.238
  H       37.421      99.549      55.435
  H       34.539      99.619      56.558
  H       41.010     103.135      53.311
  H       34.913      97.279      57.170
  H       40.804     101.502      53.847
  H       36.257      96.724      54.730
  H       34.121      96.941      53.516
  H       33.895      96.079      55.061
  P       37.104      96.200      58.038
  C       36.545      95.869      60.556
  O       36.470      96.713      59.418
  O       38.673      96.176      58.358
  O       36.619      94.874      57.553
  H       38.942      95.280      58.631
  H       36.080      96.352      61.390
  H       37.571      95.670      60.786
  H       36.040      94.948      60.351

 6  7  8  9  10  11  12  13  14  15  26  29  33  34 0
 6-311+G(2d,p)
 ****
 36  38  39  40  41 0
 6-311+G(2d,p)
 ****
 1  2  3  4  5  16  17  18  19  20  21  22  23  24  25 0
 3-21G
 ****
 27  28  30  31  32  35  37  42  43  44  45  46  47 0
 3-21G
 ****
 48  49 0
 3-21G
 ****


