%nproc=1
%NoSave
%Mem=1900MB
#P OB98/GEN NMR

erre ene a

0 1
  C      157.768     222.668    2108.794
  O      157.189     222.798    2110.110
  P      156.437     221.602    2110.852
  C      158.251     221.737    2112.689
  O      157.456     220.889    2111.872
  C      158.607     221.057    2114.042
  O      157.426     220.936    2114.864
  C      159.152     219.637    2113.903
  O      160.513     219.674    2113.467
  C      158.946     219.125    2115.328
  O      159.997     219.556    2116.206
  C      157.608     219.783    2115.720
  N      156.483     218.868    2115.614
  C      156.371     217.896    2116.633
  O      157.243     217.811    2117.496
  N      155.295     217.038    2116.592
  C      154.454     217.110    2115.629
  N      153.399     216.230    2115.649
  C      154.574     218.056    2114.488
  C      155.585     218.911    2114.557
  O      155.734     220.647    2109.921
  O      155.381     222.298    2111.841
  H      159.775     219.164    2117.085
  H      154.606     221.703    2111.930
  H      153.869     218.037    2113.677
  H      155.755     219.645    2113.787
  H      157.662     220.184    2116.743
  H      158.923     218.007    2115.369
  H      158.535     219.051    2113.197
  H      159.319     221.707    2114.565
  H      153.358     215.596    2116.441
  H      157.682     222.640    2112.894
  H      152.668     216.198    2114.943
  H      159.149     222.013    2112.152
  P      161.158     218.387    2112.746
  C      161.381     219.972    2110.729
  O      161.085     218.640    2111.165
  O      160.609     217.058    2113.211
  O      162.720     218.505    2113.078
  H      163.087     217.605    2113.138
  H      161.693     219.931    2109.691
  H      162.160     220.415    2111.356
  H      160.447     220.575    2110.807
  H      158.215     223.597    2108.508
  H      157.003     222.409    2108.092
  H      158.515     221.902    2108.807

 3  4  5  6  7  8  9  10  11  12  13  23  27  28  29  30  32 0
 6-311+G(2d,p)
 ****
 34  35 0
 6-311+G(2d,p)
 ****
 1  2  14  15  16  17  18  19  20  21  22  24  25  26 0
 3-21G
 ****
 31  33  36  37  38  39  40  41  42  43  44  45  46 0
 3-21G
 ****


