%nproc=1
%NoSave
%Mem=1900MB
#P OB98/GEN NMR

erre ene a

0 1
  C     -261.799      46.149      -4.663
  O     -262.372      45.864      -5.941
  P     -263.691      46.653      -6.395
  C     -263.666      46.980      -8.949
  O     -264.100      46.166      -7.871
  C     -262.220      46.645      -9.340
  O     -262.060      45.209      -9.532
  C     -261.790      47.324     -10.646
  O     -260.392      47.652     -10.609
  C     -261.981      46.226     -11.673
  O     -261.216      46.467     -12.853
  C     -261.555      45.003     -10.867
  N     -260.948      41.454     -14.508
  C     -260.218      42.540     -14.183
  N     -260.426      43.427     -13.187
  C     -261.516      43.092     -12.477
  C     -262.356      42.009     -12.682
  C     -262.041      41.164     -13.760
  N     -262.806      40.074     -14.109
  N     -263.375      41.994     -11.752
  C     -263.182      43.078     -11.030
  N     -262.055      43.757     -11.406
  O     -263.658      48.132      -6.205
  O     -264.831      45.984      -5.486
  H     -261.462      47.349     -13.186
  H     -265.433      46.685      -5.159
  H     -259.350      42.726     -14.811
  H     -263.833      43.425     -10.240
  H     -260.463      44.921     -10.799
  H     -263.038      46.165     -11.961
  H     -262.356      48.226     -10.898
  H     -261.556      46.934      -8.519
  H     -263.743      48.033      -8.672
  H     -262.568      39.596     -14.965
  H     -263.697      39.936     -13.656
  H     -264.349      46.842      -9.796
  P     -260.030      49.214     -10.770
  C     -258.034      49.442      -9.096
  O     -258.469      49.334     -10.433
  O     -260.941      50.118     -10.010
  O     -260.110      49.407     -12.357
  H     -259.608      48.753     -12.872
  H     -256.945      49.381      -9.072
  H     -258.439      48.624      -8.488
  H     -258.342      50.402      -8.675
  H     -260.931      45.541      -4.518
  H     -262.515      45.938      -3.896
  H     -261.522      47.182      -4.618

 3  4  5  6  7  8  9  10  11  12  22  25  29  30  31  32 0
 6-311+G(2d,p)
 ****
 33  36  37 0
 6-311+G(2d,p)
 ****
 1  2  13  14  15  16  17  18  19  20  21  23  24  26 0
 3-21G
 ****
 27  28  34  35  38  39  40  41  42  43  44  45  46  47  48 0
 3-21G
 ****


