%nproc=1
%NoSave
%Mem=1900MB
#P OB98/GEN NMR

erre ene a

0 1
  C      178.639     185.507      36.565
  O      177.994     184.419      35.931
  H      177.938     186.339      36.637
  H      179.503     185.822      35.977
  H      178.961     185.228      37.575
  P      178.759     183.009      35.924
  C      177.030     181.562      37.226
  O      177.623     181.872      35.971
  C      175.549     181.226      37.036
  O      174.836     182.460      36.705
  C      175.275     180.224      35.906
  O      174.174     179.391      36.299
  C      174.836     181.110      34.752
  O      174.043     180.444      33.778
  C      174.074     182.207      35.509
  N      173.917     183.428      34.717
  C      172.750     183.560      33.964
  O      171.811     182.764      33.979
  N      172.694     184.670      33.157
  C      173.664     185.620      33.018
  O      173.560     186.583      32.259
  C      174.874     185.422      33.831
  C      174.943     184.354      34.626
  O      179.407     182.946      37.385
  O      179.773     182.828      34.842
  H      180.299     183.347      37.384
  H      173.254     180.086      34.241
  H      171.855     184.779      32.605
  H      175.668     186.150      33.738
  H      175.835     184.163      35.227
  H      173.086     181.843      35.815
  H      175.718     181.529      34.245
  H      176.135     179.599      35.642
  H      175.144     180.868      37.990
  H      177.123     182.423      37.892
  H      177.558     180.712      37.674
  P      174.303     177.815      36.014
  C      175.068     176.757      38.293
  O      173.995     177.098      37.416
  O      175.888     177.660      35.826
  O      173.476     177.360      34.856
  H      176.395     178.263      36.405
  H      174.675     176.290      39.172
  H      175.600     177.644      38.567
  H      175.733     176.081      37.797

 6  7  8  9  10  11  12  13  14  15  16  27  31  32  33  34  35 0
 6-311+G(2d,p)
 ****
 36  37 0
 6-311+G(2d,p)
 ****
 1  2  3  4  5  17  18  19  20  21  22  23  24  25 0
 3-21G
 ****
 26  28  29  30  38  39  40  41  42  43  44  45 0
 3-21G
 ****


