%nproc=1
%NoSave
%Mem=1900MB
#P OB98/GEN NMR

erre ene a

0 1
  C     -254.682     220.838      41.938
  O     -255.573     220.875      43.035
  H     -253.739     220.397      42.267
  H     -254.486     221.846      41.563
  H     -255.097     220.218      41.138
  P     -256.979     221.623      42.864
  C     -256.279     223.838      43.977
  O     -257.085     222.672      44.075
  C     -255.221     223.860      45.079
  O     -255.893     223.822      46.366
  C     -254.245     222.679      45.016
  O     -252.948     223.146      45.392
  C     -254.797     221.737      46.067
  O     -253.800     220.857      46.551
  C     -255.368     222.705      47.107
  N     -256.394     222.058      47.925
  C     -255.954     221.415      49.086
  O     -254.759     221.424      49.385
  N     -256.859     220.722      49.845
  C     -258.090     220.628      49.452
  N     -258.928     219.893      50.231
  C     -258.595     221.267      48.220
  C     -257.703     221.960      47.512
  O     -258.174     220.746      42.692
  O     -256.753     222.563      41.588
  H     -253.309     220.475      45.793
  H     -257.013     222.091      40.775
  H     -259.630     221.155      47.933
  H     -257.980     222.453      46.587
  H     -254.576     223.081      47.769
  H     -255.600     221.130      45.632
  H     -254.202     222.211      44.028
  H     -254.685     224.815      45.030
  H     -258.532     219.454      51.053
  H     -256.935     224.710      44.080
  H     -259.896     219.715      50.008
  H     -255.798     223.874      42.994
  P     -252.041     223.963      44.350
  C     -250.889     222.081      43.055
  O     -250.718     223.109      44.024
  O     -251.783     225.385      44.726
  O     -252.871     223.888      42.979
  H     -252.693     224.689      42.450
  H     -249.959     221.572      42.907
  H     -251.211     222.513      42.130
  H     -251.626     221.385      43.399

 6  7  8  9  10  11  12  13  14  15  16  26  30  31  32  33  35 0
 6-311+G(2d,p)
 ****
 37  38 0
 6-311+G(2d,p)
 ****
 1  2  3  4  5  17  18  19  20  21  22  23  24  25 0
 3-21G
 ****
 27  28  29  34  36  39  40  41  42  43  44  45  46 0
 3-21G
 ****


