%nproc=1
%NoSave
%Mem=1900MB
#P OB98/GEN NMR

erre ene a

0 1
  C      658.281    -526.643      -3.615
  O      657.051    -525.941      -3.585
  H      658.301    -527.397      -2.824
  H      658.375    -527.140      -4.588
  H      659.112    -525.943      -3.496
  P      656.694    -525.163      -2.227
  C      654.484    -526.430      -1.736
  O      655.819    -526.169      -1.324
  C      653.884    -527.549      -0.868
  O      654.215    -528.823      -1.474
  C      654.370    -527.556       0.582
  O      653.259    -527.451       1.480
  C      654.991    -528.938       0.758
  O      654.696    -529.538       2.029
  C      654.402    -529.743      -0.396
  N      655.579    -534.634       0.472
  C      654.444    -533.924       0.709
  N      654.157    -532.663       0.359
  C      655.178    -532.117      -0.327
  C      656.383    -532.714      -0.652
  C      656.569    -534.025      -0.205
  N      657.746    -534.725      -0.398
  N      657.190    -531.831      -1.360
  C      656.504    -530.710      -1.412
  N      655.283    -530.826      -0.778
  O      655.620    -524.061      -2.695
  O      657.856    -524.538      -1.527
  H      654.939    -528.886       2.711
  H      655.866    -523.193      -2.333
  H      653.663    -534.464       1.258
  H      656.850    -529.780      -1.842
  H      653.422    -530.177      -0.148
  H      656.077    -528.856       0.674
  H      655.102    -526.771       0.794
  H      652.790    -527.457      -0.909
  H      654.474    -526.750      -2.783
  H      657.846    -535.621       0.061
  H      658.536    -534.245      -0.809
  H      653.903    -525.513      -1.641
  P      653.221    -526.157       2.431
  C      654.383    -527.242       4.502
  O      654.461    -526.278       3.457
  O      651.946    -526.410       3.362
  O      653.127    -524.864       1.694
  H      651.573    -525.573       3.670
  H      655.274    -527.201       5.093
  H      654.281    -528.219       4.079
  H      653.535    -527.030       5.120

 6  7  8  9  10  11  12  13  14  15  25  28  32  33  34  35 0
 6-311+G(2d,p)
 ****
 36  39  40 0
 6-311+G(2d,p)
 ****
 1  2  3  4  5  16  17  18  19  20  21  22  23  24 0
 3-21G
 ****
 26  27  29  30  31  37  38  41  42  43  44  45  46  47  48 0
 3-21G
 ****


