%nproc=1
%NoSave
%Mem=1900MB
#P OB98/GEN NMR

erre ene a

0 1
  C     -219.066     299.616       5.455
  O     -219.328     299.226       4.121
  H     -219.981     299.985       5.926
  H     -218.709     298.747       6.014
  H     -218.297     300.392       5.478
  P     -219.903     300.355       3.136
  C     -221.560     302.321       3.483
  O     -221.182     301.005       3.864
  C     -222.368     302.976       4.598
  O     -223.692     302.378       4.612
  C     -221.762     302.827       6.004
  O     -221.538     304.114       6.588
  C     -222.841     302.113       6.811
  O     -222.979     302.621       8.135
  C     -224.104     302.341       5.984
  N     -227.586     300.539       9.248
  C     -227.061     301.774       9.094
  N     -226.215     302.216       8.139
  C     -225.941     301.234       7.259
  C     -226.414     299.934       7.271
  C     -227.265     299.588       8.337
  N     -227.755     298.314       8.525
  N     -225.901     299.214       6.207
  C     -225.093     300.053       5.591
  N     -225.069     301.281       6.202
  O     -220.546     299.504       1.938
  O     -218.893     301.336       2.639
  H     -223.347     303.522       8.055
  H     -220.248     299.870       1.082
  H     -227.350     302.506       9.842
  H     -224.473     299.816       4.734
  H     -224.586     303.297       6.221
  H     -222.590     301.047       6.874
  H     -220.827     302.252       6.004
  H     -222.500     304.037       4.352
  H     -222.172     302.279       2.573
  H     -228.260     298.127       9.380
  H     -227.432     297.577       7.915
  H     -220.655     302.901       3.265
  P     -220.258     304.934       6.060
  C     -217.738     304.303       5.860
  O     -218.948     304.172       6.596
  O     -220.296     306.266       6.945
  O     -220.285     305.230       4.599
  H     -219.865     306.999       6.466
  H     -216.965     303.741       6.342
  H     -217.456     305.334       5.818
  H     -217.883     303.932       4.867

 6  7  8  9  10  11  12  13  14  15  25  28  32  33  34  35 0
 6-311+G(2d,p)
 ****
 36  39  40 0
 6-311+G(2d,p)
 ****
 1  2  3  4  5  16  17  18  19  20  21  22  23  24 0
 3-21G
 ****
 26  27  29  30  31  37  38  41  42  43  44  45  46  47  48 0
 3-21G
 ****


