%nproc=1
%NoSave
%Mem=1900MB
#P OB98/GEN NMR

erre ene a

0 1
  C     -254.939     761.625      44.710
  O     -255.784     760.834      43.897
  H     -253.903     761.451      44.409
  H     -255.047     761.357      45.766
  H     -255.171     762.683      44.575
  P     -257.327     760.694      44.324
  C     -257.623     763.070      43.359
  O     -257.870     762.203      44.463
  C     -258.908     763.767      42.906
  O     -259.570     764.396      44.026
  C     -258.685     764.893      41.903
  O     -258.212     764.473      40.646
  C     -260.000     765.651      41.996
  O     -261.024     765.067      41.190
  C     -260.345     765.498      43.501
  N     -260.114     766.728      44.248
  C     -260.849     767.834      43.839
  O     -261.640     767.818      42.892
  N     -260.626     768.986      44.544
  C     -259.731     769.147      45.551
  O     -259.560     770.216      46.134
  C     -258.953     767.950      45.914
  C     -259.177     766.806      45.261
  O     -257.596     759.838      45.528
  O     -258.047     760.175      42.994
  H     -260.673     765.000      40.288
  H     -258.951     759.818      43.191
  H     -261.163     769.797      44.270
  H     -258.220     768.043      46.710
  H     -258.617     765.913      45.507
  H     -261.399     765.219      43.616
  H     -259.890     766.692      41.670
  H     -257.912     765.559      42.307
  H     -259.583     763.005      42.502
  H     -257.233     762.459      42.534
  H     -256.870     763.815      43.642
  P     -257.260     765.355      39.723
  C     -255.054     764.107      40.392
  O     -255.780     765.334      40.342
  O     -257.803     766.668      39.247
  O     -257.091     764.400      38.430
  H     -257.018     764.982      37.648
  H     -254.094     764.278      40.832
  H     -254.929     763.726      39.400
  H     -255.595     763.396      40.981

 6  7  8  9  10  11  12  13  14  15  16  26  31  32  33  34  35 0
 6-311+G(2d,p)
 ****
 36  37 0
 6-311+G(2d,p)
 ****
 1  2  3  4  5  17  18  19  20  21  22  23  24  25 0
 3-21G
 ****
 27  28  29  30  38  39  40  41  42  43  44  45 0
 3-21G
 ****


