%nproc=1
%NoSave
%Mem=1900MB
#P OB98/GEN NMR

erre ene a

0 1
  C      687.098       2.414    -715.778
  O      686.386       3.372    -716.548
  P      686.353       3.165    -718.141
  C      688.177       2.564    -719.899
  O      687.887       3.090    -718.601
  C      689.667       2.682    -720.202
  O      690.421       1.888    -719.269
  C      690.067       2.175    -721.579
  O      689.844       3.144    -722.591
  C      691.555       1.957    -721.380
  O      692.255       3.207    -721.467
  C      691.607       1.410    -719.954
  N      694.517      -2.727    -720.697
  C      694.748      -1.413    -720.924
  N      693.917      -0.387    -720.709
  C      692.725      -0.802    -720.249
  C      692.343      -2.118    -720.017
  C      693.294      -3.111    -720.251
  N      693.080      -4.445    -720.000
  N      691.042      -2.159    -719.554
  C      690.662      -0.899    -719.495
  N      691.643      -0.046    -719.896
  O      685.878       4.599    -718.678
  O      685.470       2.059    -718.613
  H      691.914       3.663    -722.260
  H      685.476       4.507    -719.562
  H      695.730      -1.171    -721.305
  H      689.676      -0.561    -719.172
  H      692.480       1.778    -719.401
  H      691.987       1.293    -722.142
  H      689.579       1.223    -721.814
  H      689.960       3.722    -720.075
  H      687.614       3.150    -720.635
  H      693.861      -5.071    -720.020
  H      692.243      -4.690    -719.469
  H      687.843       1.525    -719.943
  P      689.865       2.629    -724.110
  C      691.721       1.373    -725.431
  O      691.406       2.331    -724.434
  O      689.543       3.952    -724.955
  O      688.900       1.518    -724.390
  H      689.141       3.717    -725.811
  H      692.762       1.517    -725.737
  H      691.077       1.477    -726.303
  H      691.612       0.363    -725.013
  H      687.038       2.673    -714.742
  H      688.123       2.402    -716.083
  H      686.669       1.445    -715.929

 3  4  5  6  7  8  9  10  11  12  22  25  29  30  31  32 0
 6-311+G(2d,p)
 ****
 33  36  37 0
 6-311+G(2d,p)
 ****
 1  2  13  14  15  16  17  18  19  20  21  23  24  26 0
 3-21G
 ****
 27  28  34  35  38  39  40  41  42  43  44  45  46  47  48 0
 3-21G
 ****


