%nproc=1
%NoSave
%Mem=1900MB
#P OB98/GEN NMR

erre ene a

0 1
  C      -10.101     -65.664     -15.099
  O      -10.518     -66.611     -16.062
  H      -10.020     -64.686     -15.582
  H       -9.123     -65.933     -14.691
  H      -10.835     -65.594     -14.291
  P      -10.636     -68.146     -15.622
  C      -13.221     -68.164     -15.706
  O      -12.057     -68.300     -14.898
  C      -14.423     -68.822     -15.031
  O      -15.647     -68.401     -15.666
  C      -14.421     -70.344     -15.102
  O      -13.488     -70.884     -14.189
  C      -15.880     -70.639     -14.796
  O      -16.142     -70.536     -13.388
  C      -16.587     -69.497     -15.568
  N      -17.060     -69.894     -16.890
  C      -18.310     -69.393     -17.271
  O      -18.951     -68.675     -16.505
  N      -18.803     -69.738     -18.506
  C      -18.099     -70.476     -19.304
  N      -18.642     -70.777     -20.513
  C      -16.763     -70.995     -18.953
  C      -16.315     -70.679     -17.740
  O       -9.483     -68.701     -14.844
  O      -10.847     -68.927     -17.003
  H      -16.057     -69.588     -13.165
  H       -9.992     -69.246     -17.349
  H      -16.206     -71.600     -19.654
  H      -15.341     -71.021     -17.404
  H      -17.447     -69.125     -14.997
  H      -16.174     -71.642     -15.103
  H      -14.209     -70.677     -16.124
  H      -14.456     -68.476     -13.990
  H      -19.554     -70.380     -20.717
  H      -13.010     -68.658     -16.661
  H      -18.125     -71.201     -21.269
  H      -13.433     -67.108     -15.905
  P      -13.051     -72.425     -14.248
  C      -10.881     -71.684     -15.409
  O      -12.012     -72.539     -15.467
  O      -14.176     -73.403     -14.288
  O      -12.103     -72.597     -12.971
  H      -12.645     -72.662     -12.145
  H      -10.265     -71.848     -16.268
  H      -10.320     -71.894     -14.523
  H      -11.205     -70.664     -15.392

 6  7  8  9  10  11  12  13  14  15  16  26  30  31  32  33  35 0
 6-311+G(2d,p)
 ****
 37  38 0
 6-311+G(2d,p)
 ****
 1  2  3  4  5  17  18  19  20  21  22  23  24  25 0
 3-21G
 ****
 27  28  29  34  36  39  40  41  42  43  44  45  46 0
 3-21G
 ****


