%nproc=1
%NoSave
%Mem=1900MB
#P OB98/GEN NMR

erre ene a

0 1
  C     -275.119      65.008      -8.386
  O     -276.053      64.420      -9.269
  H     -274.316      65.495      -8.949
  H     -275.633      65.758      -7.778
  H     -274.699      64.245      -7.723
  P     -275.467      63.360     -10.323
  C     -274.230      63.517     -12.597
  O     -274.918      64.214     -11.568
  C     -274.203      64.349     -13.871
  O     -275.539      64.500     -14.395
  C     -273.680      65.772     -13.695
  O     -272.261      65.809     -13.635
  C     -274.205      66.424     -14.967
  O     -273.339      66.101     -16.070
  C     -275.568      65.741     -15.150
  N     -280.396      67.199     -16.125
  C     -279.552      66.375     -16.788
  N     -278.282      66.045     -16.477
  C     -277.896      66.644     -15.339
  C     -278.647      67.506     -14.555
  C     -279.953      67.787     -14.990
  N     -280.800      68.643     -14.316
  N     -277.925      67.915     -13.453
  C     -276.758      67.314     -13.567
  N     -276.692      66.537     -14.696
  O     -276.782      62.653     -10.911
  O     -274.514      62.359      -9.762
  H     -272.434      66.337     -15.792
  H     -276.585      61.713     -11.085
  H     -279.951      65.921     -17.692
  H     -275.942      67.402     -12.862
  H     -275.742      65.471     -16.198
  H     -274.258      67.514     -14.897
  H     -274.133      66.255     -12.824
  H     -273.611      63.805     -14.619
  H     -274.741      62.568     -12.798
  H     -281.777      68.648     -14.561
  H     -280.460      69.072     -13.461
  H     -273.211      63.305     -12.258
  P     -271.594      66.575     -12.389
  C     -271.492      69.062     -11.653
  O     -271.756      68.139     -12.704
  O     -270.028      66.315     -12.601
  O     -272.056      66.119     -11.045
  H     -269.564      66.371     -11.741
  H     -271.640      70.060     -12.009
  H     -270.480      68.948     -11.324
  H     -272.157      68.872     -10.836

 6  7  8  9  10  11  12  13  14  15  25  28  32  33  34  35 0
 6-311+G(2d,p)
 ****
 36  39  40 0
 6-311+G(2d,p)
 ****
 1  2  3  4  5  16  17  18  19  20  21  22  23  24 0
 3-21G
 ****
 26  27  29  30  31  37  38  41  42  43  44  45  46  47  48 0
 3-21G
 ****


