%nproc=1
%NoSave
%Mem=1900MB
#P OB98/GEN NMR

erre ene a

0 1
  C      218.484     389.408    -138.119
  O      218.142     389.535    -136.734
  P      218.171     390.980    -136.044
  C      219.901     392.558    -134.949
  O      219.623     391.245    -135.422
  C      220.391     392.499    -133.497
  O      219.324     392.138    -132.587
  C      221.465     391.439    -133.280
  O      222.730     391.676    -133.866
  C      221.422     391.242    -131.773
  O      222.190     392.231    -131.089
  C      219.915     391.428    -131.476
  N      219.225     390.161    -131.231
  C      219.851     389.288    -130.344
  O      220.934     389.524    -129.819
  N      219.194     388.105    -130.107
  C      218.024     387.712    -130.685
  O      217.491     386.631    -130.455
  C      217.425     388.665    -131.635
  C      218.042     389.826    -131.858
  O      217.025     391.287    -135.140
  O      218.155     391.973    -137.312
  H      221.941     392.192    -130.146
  H      217.564     392.718    -137.095
  H      219.627     387.466    -129.461
  H      216.500     388.381    -132.116
  H      217.619     390.545    -132.554
  H      219.773     392.061    -130.590
  H      221.822     390.271    -131.481
  H      221.106     390.499    -133.728
  H      220.749     393.490    -133.210
  H      219.000     393.173    -135.015
  H      220.647     393.022    -135.603
  P      223.334     390.772    -135.042
  C      223.380     388.252    -135.655
  O      223.008     389.234    -134.714
  O      224.710     391.093    -135.515
  O      222.304     391.072    -136.238
  H      222.791     391.033    -137.077
  H      223.072     387.272    -135.277
  H      224.466     388.247    -135.794
  H      222.880     388.429    -136.612
  H      218.412     388.381    -138.411
  H      219.485     389.753    -138.272
  H      217.810     389.995    -138.708

 3  4  5  6  7  8  9  10  11  12  13  23  28  29  30  31  32 0
 6-311+G(2d,p)
 ****
 33  34 0
 6-311+G(2d,p)
 ****
 1  2  14  15  16  17  18  19  20  21  22  24  25  26  27 0
 3-21G
 ****
 35  36  37  38  39  40  41  42  43  44  45 0
 3-21G
 ****


