%nproc=1
%NoSave
%Mem=1900MB
#P OB98/GEN NMR

erre ene a

0 1
  C     -937.282     105.648    -985.584
  O     -937.160     104.233    -985.566
  P     -937.943     103.447    -984.400
  C     -937.887     103.533    -981.807
  O     -937.228     103.850    -983.015
  C     -937.002     102.653    -980.930
  O     -935.779     103.358    -980.566
  C     -937.621     102.241    -979.610
  O     -938.590     101.218    -979.784
  C     -936.372     101.808    -978.822
  O     -935.972     100.510    -979.238
  C     -935.349     102.856    -979.296
  N     -933.403     104.351    -974.794
  C     -933.391     103.157    -975.411
  N     -933.953     102.834    -976.603
  C     -934.571     103.892    -977.137
  C     -934.677     105.179    -976.625
  C     -934.065     105.375    -975.382
  N     -934.080     106.622    -974.715
  N     -935.421     106.004    -977.442
  C     -935.708     105.258    -978.473
  N     -935.209     103.987    -978.368
  O     -937.487     101.915    -984.640
  O     -939.440     103.609    -984.425
  H     -935.583     100.594    -980.144
  H     -938.223     101.318    -984.397
  H     -932.881     102.351    -974.916
  H     -936.297     105.570    -979.333
  H     -934.339     102.426    -979.435
  H     -936.529     101.800    -977.744
  H     -938.105     103.100    -979.104
  H     -936.714     101.751    -981.515
  H     -938.824     103.002    -982.009
  H     -933.732     106.625    -973.776
  H     -934.695     107.325    -975.095
  H     -938.163     104.461    -981.288
  P     -939.635     100.954    -978.605
  C     -939.352     100.225    -976.143
  O     -938.725     100.337    -977.414
  O     -940.437      99.664    -979.136
  O     -940.474     102.132    -978.227
  H     -939.816      98.980    -979.444
  H     -938.648      99.742    -975.442
  H     -940.265      99.612    -976.234
  H     -939.607     101.218    -975.742
  H     -936.718     106.044    -986.402
  H     -936.909     106.050    -984.665
  H     -938.312     105.916    -985.698

 3  4  5  6  7  8  9  10  11  12  22  25  29  30  31  32 0
 6-311+G(2d,p)
 ****
 33  36  37 0
 6-311+G(2d,p)
 ****
 1  2  13  14  15  16  17  18  19  20  21  23  24  26 0
 3-21G
 ****
 27  28  34  35  38  39  40  41  42  43  44  45  46  47  48 0
 3-21G
 ****


