%nproc=1
%NoSave
%Mem=1900MB
#P OB98/GEN NMR

erre ene a

0 1
  C      718.423    1492.002    1005.336
  O      718.514    1490.994    1006.304
  P      719.467    1491.306    1007.599
  C      717.854    1492.949    1008.824
  O      718.443    1491.642    1008.792
  C      717.231    1493.225    1010.194
  O      716.004    1492.456    1010.326
  C      718.088    1492.873    1011.396
  O      719.032    1493.878    1011.677
  C      717.029    1492.778    1012.475
  O      716.648    1494.101    1012.925
  C      715.839    1492.115    1011.733
  N      715.219    1488.377    1015.175
  C      715.340    1489.712    1015.298
  N      715.498    1490.658    1014.352
  C      715.631    1490.086    1013.125
  C      715.554    1488.705    1012.836
  C      715.368    1487.868    1013.924
  N      715.232    1486.462    1013.790
  N      715.743    1488.489    1011.499
  C      715.856    1489.683    1010.983
  N      715.799    1490.690    1011.910
  O      720.123    1492.714    1007.237
  O      720.466    1490.257    1007.878
  H      716.138    1493.970    1013.746
  H      720.963    1492.808    1007.733
  H      715.270    1490.102    1016.300
  H      715.972    1489.892    1009.936
  H      714.888    1492.546    1012.040
  H      717.377    1492.218    1013.346
  H      718.568    1491.898    1011.262
  H      716.944    1494.300    1010.192
  H      717.100    1493.041    1008.029
  H      714.908    1485.985    1014.582
  H      715.120    1486.082    1012.841
  H      718.664    1493.698    1008.615
  P      720.404    1493.414    1012.393
  C      721.569    1492.015    1010.520
  O      721.462    1493.279    1011.197
  O      720.091    1491.881    1012.814
  O      720.786    1494.264    1013.558
  H      720.628    1491.640    1013.568
  H      722.089    1492.198    1009.558
  H      720.573    1491.612    1010.299
  H      722.117    1491.313    1011.131
  H      717.776    1491.681    1004.546
  H      719.396    1492.205    1004.940
  H      718.027    1492.890    1005.782

 3  4  5  6  7  8  9  10  11  12  22  25  29  30  31  32 0
 6-311+G(2d,p)
 ****
 33  36  37 0
 6-311+G(2d,p)
 ****
 1  2  13  14  15  16  17  18  19  20  21  23  24  26 0
 3-21G
 ****
 27  28  34  35  38  39  40  41  42  43  44  45  46  47  48 0
 3-21G
 ****


