%nproc=1
%NoSave
%Mem=1900MB
#P OB98/GEN NMR

erre ene a

0 1
  C     -304.945      83.340     -35.893
  O     -303.676      83.047     -35.355
  P     -302.728      84.130     -34.670
  C     -301.553      84.862     -36.892
  O     -302.344      85.238     -35.769
  C     -300.278      85.715     -36.980
  O     -300.662      87.110     -37.102
  C     -299.433      85.593     -35.696
  O     -298.034      85.493     -35.929
  C     -299.921      86.771     -34.858
  O     -299.008      87.154     -33.837
  C     -300.207      87.815     -35.934
  N     -301.219      92.003     -33.225
  C     -299.993      91.425     -33.511
  N     -298.934      91.929     -32.852
  N     -299.845      90.431     -34.348
  C     -301.007      89.964     -34.850
  C     -302.280      90.450     -34.638
  C     -302.433      91.566     -33.738
  O     -303.506      92.035     -33.357
  N     -303.233      89.676     -35.259
  C     -302.541      88.702     -35.812
  N     -301.195      88.816     -35.571
  O     -301.643      83.616     -33.788
  O     -303.772      84.939     -33.738
  H     -299.461      87.803     -33.269
  H     -303.288      85.217     -32.936
  H     -301.282      92.722     -32.509
  H     -302.966      87.880     -36.382
  H     -299.303      88.370     -36.198
  H     -300.838      86.458     -34.358
  H     -299.036      92.595     -32.095
  H     -299.662      84.663     -35.169
  H     -298.083      91.376     -32.853
  H     -299.720      85.436     -37.879
  H     -302.176      85.030     -37.782
  H     -301.307      83.795     -36.852
  P     -296.954      84.574     -35.195
  C     -295.984      86.457     -33.735
  O     -296.644      85.199     -33.757
  O     -295.592      84.825     -35.989
  O     -297.282      83.119     -35.179
  H     -295.104      83.973     -36.073
  H     -295.599      86.641     -32.737
  H     -296.706      87.244     -33.988
  H     -295.160      86.473     -34.452
  H     -305.378      82.447     -36.293
  H     -304.843      84.066     -36.672
  H     -305.578      83.729     -35.123

 3  4  5  6  7  8  9  10  11  12  23  26  30  31 0
 6-311+G(2d,p)
 ****
 33  35  36  37  38 0
 6-311+G(2d,p)
 ****
 1  2  13  14  15  16  17  18  19  20  21  22  24  25 0
 3-21G
 ****
 27  28  29  32  34  39  40  41  42  43  44  45  46  47  48  49 0
 3-21G
 ****


