%nproc=1
%NoSave
%Mem=1900MB
#P OB98/GEN NMR

erre ene a

0 1
  C      534.674     435.793     254.378
  O      534.954     434.624     253.623
  P      536.135     433.636     254.061
  C      538.566     433.175     253.406
  O      537.488     434.082     253.318
  C      539.536     433.359     252.228
  O      538.935     432.775     251.018
  C      539.885     434.829     251.907
  O      541.274     434.844     251.519
  C      538.992     435.138     250.712
  O      539.486     436.233     249.957
  C      538.978     433.783     249.992
  N      537.868     433.667     249.072
  C      538.113     434.015     247.729
  O      539.180     434.527     247.416
  N      537.118     433.777     246.800
  C      535.940     433.410     247.217
  N      535.006     433.130     246.253
  C      535.581     433.275     248.636
  C      536.596     433.373     249.508
  O      535.820     432.176     253.938
  O      536.425     434.020     255.603
  H      536.373     433.206     256.147
  H      539.467     437.042     250.503
  H      534.556     433.101     248.922
  H      536.432     433.271     250.570
  H      539.931     433.642     249.450
  H      537.988     435.400     251.065
  H      539.732     435.482     252.773
  H      540.432     432.784     252.434
  H      535.302     433.194     245.286
  H      538.166     432.160     253.384
  H      534.194     432.555     246.438
  H      539.100     433.309     254.350
  P      542.173     436.074     252.049
  C      542.703     438.486     251.201
  O      541.931     437.330     251.043
  O      543.644     435.599     251.611
  O      542.137     436.371     253.511
  H      544.301     436.034     252.203
  H      542.359     439.238     250.507
  H      543.757     438.278     251.007
  H      542.591     438.883     252.232
  H      533.857     436.319     253.931
  H      535.539     436.423     254.393
  H      534.415     435.518     255.379

 3  4  5  6  7  8  9  10  11  12  13  24  27  28  29  30  32 0
 6-311+G(2d,p)
 ****
 34  35 0
 6-311+G(2d,p)
 ****
 1  2  14  15  16  17  18  19  20  21  22  23  25  26 0
 3-21G
 ****
 31  33  36  37  38  39  40  41  42  43  44  45  46 0
 3-21G
 ****


