%nproc=1
%NoSave
%Mem=1900MB
#P OB98/GEN NMR

erre ene a

0 1
  C      521.146     -80.875     287.344
  O      520.705     -80.258     288.538
  H      520.777     -80.303     286.491
  H      520.742     -81.890     287.296
  H      522.244     -80.907     287.304
  P      521.438     -80.676     289.902
  C      522.708     -78.411     289.759
  O      522.797     -79.818     289.978
  C      524.105     -77.788     289.748
  O      524.700     -77.955     291.076
  C      525.071     -78.409     288.719
  O      525.900     -77.363     288.181
  C      525.930     -79.318     289.577
  O      527.192     -79.589     288.977
  C      526.012     -78.504     290.858
  N      530.114     -80.284     293.153
  C      529.980     -79.329     292.161
  N      531.126     -78.803     291.663
  N      528.835     -78.928     291.696
  C      527.767     -79.519     292.305
  C      527.767     -80.484     293.291
  C      529.046     -80.932     293.774
  O      529.234     -81.793     294.637
  N      526.477     -80.872     293.589
  C      525.723     -80.165     292.776
  N      526.454     -79.324     291.976
  O      521.949     -82.161     289.580
  O      520.588     -80.637     291.121
  H      527.728     -80.118     289.610
  H      521.300     -82.810     289.910
  H      531.032     -80.581     293.453
  H      524.642     -80.226     292.713
  H      526.729     -77.672     290.784
  H      525.411     -80.279     289.744
  H      532.048     -79.045     291.972
  H      524.562     -78.937     287.903
  H      531.033     -78.070     290.960
  H      524.003     -76.709     289.581
  H      522.116     -77.967     290.568
  H      522.201     -78.233     288.811
  P      525.579     -76.841     286.704
  C      524.617     -74.752     287.940
  O      524.530     -75.622     286.825
  O      524.693     -78.016     286.073
  O      526.789     -76.549     285.884
  H      524.878     -78.095     285.116
  H      523.855     -74.004     287.869
  H      525.578     -74.282     287.952
  H      524.483     -75.313     288.841

 6  7  8  9  10  11  12  13  14  15  26  29  33  34 0
 6-311+G(2d,p)
 ****
 36  38  39  40  41 0
 6-311+G(2d,p)
 ****
 1  2  3  4  5  16  17  18  19  20  21  22  23  24  25 0
 3-21G
 ****
 27  28  30  31  32  35  37  42  43  44  45  46  47 0
 3-21G
 ****
 48  49 0
 3-21G
 ****


