%nproc=1
%NoSave
%Mem=1900MB
#P OB98/GEN NMR

erre ene a

0 1
  C     -133.238    -377.354     -48.343
  O     -131.934    -376.954     -47.980
  H     -133.579    -378.113     -47.635
  H     -133.227    -377.788     -49.346
  H     -133.934    -376.512     -48.314
  P     -131.319    -375.634     -48.643
  C     -129.303    -376.339     -50.092
  O     -130.696    -376.062     -50.058
  C     -128.790    -376.368     -51.536
  O     -129.697    -377.163     -52.343
  C     -128.763    -374.963     -52.150
  O     -127.765    -374.838     -53.160
  C     -130.135    -374.853     -52.795
  O     -130.186    -373.886     -53.844
  C     -130.364    -376.287     -53.266
  N     -134.090    -378.228     -56.154
  C     -132.811    -377.850     -56.515
  N     -132.483    -378.015     -57.819
  N     -131.945    -377.337     -55.683
  C     -132.433    -377.165     -54.431
  C     -133.686    -377.478     -53.958
  C     -134.627    -378.078     -54.882
  O     -135.777    -378.411     -54.619
  N     -133.819    -377.149     -52.632
  C     -132.651    -376.634     -52.305
  N     -131.767    -376.644     -53.357
  O     -130.012    -375.344     -47.763
  O     -132.230    -374.444     -48.681
  H     -129.538    -374.156     -54.521
  H     -129.755    -374.407     -47.837
  H     -134.707    -378.646     -56.827
  H     -132.390    -376.255     -51.325
  H     -129.920    -376.444     -54.257
  H     -130.849    -374.536     -52.030
  H     -133.180    -378.217     -58.519
  H     -128.616    -374.182     -51.408
  H     -131.688    -377.465     -58.158
  H     -127.813    -376.860     -51.578
  H     -129.160    -377.312     -49.614
  H     -128.755    -375.604     -49.502
  P     -126.237    -374.681     -52.710
  C     -125.776    -372.312     -53.794
  O     -125.844    -373.135     -52.653
  O     -125.414    -375.239     -53.961
  O     -125.890    -375.402     -51.445
  H     -124.921    -376.044     -53.713
  H     -125.494    -371.322     -53.503
  H     -126.733    -372.284     -54.271
  H     -125.049    -372.705     -54.474

 6  7  8  9  10  11  12  13  14  15  26  29  33  34 0
 6-311+G(2d,p)
 ****
 36  38  39  40  41 0
 6-311+G(2d,p)
 ****
 1  2  3  4  5  16  17  18  19  20  21  22  23  24  25 0
 3-21G
 ****
 27  28  30  31  32  35  37  42  43  44  45  46  47 0
 3-21G
 ****
 48  49 0
 3-21G
 ****


