%nproc=1
%NoSave
%Mem=1900MB
#P OB98/GEN NMR

erre ene a

0 1
  C      397.702      69.751      34.563
  O      397.214      71.003      34.069
  P      398.318      72.147      33.838
  C      397.481      72.925      31.510
  O      397.673      73.266      32.875
  C      396.512      73.896      30.824
  O      395.146      73.684      31.284
  C      396.842      75.374      31.073
  O      396.492      76.087      29.878
  C      395.871      75.752      32.177
  O      395.703      77.165      32.269
  C      394.644      74.966      31.724
  N      390.343      76.821      33.617
  C      391.150      77.298      32.604
  N      390.718      78.407      31.964
  N      392.274      76.739      32.243
  C      392.559      75.614      32.947
  C      391.836      75.027      33.961
  C      390.603      75.681      34.366
  O      389.853      75.293      35.254
  N      392.432      73.871      34.402
  C      393.548      73.805      33.697
  N      393.646      74.801      32.762
  O      399.403      71.422      32.909
  O      398.922      72.665      35.096
  H      394.932      77.329      32.853
  H      400.164      71.135      33.443
  H      389.495      77.298      33.864
  H      394.306      73.044      33.804
  H      394.131      75.447      30.879
  H      396.235      75.386      33.147
  H      389.839      78.861      32.156
  H      397.884      75.567      31.340
  H      391.271      78.758      31.190
  H      396.530      73.691      29.746
  H      397.081      71.910      31.429
  H      398.451      72.910      31.004
  P      397.652      76.372      28.814
  C      396.427      75.664      26.642
  O      396.943      76.727      27.421
  O      398.270      74.913      28.555
  O      398.704      77.324      29.275
  H      399.239      74.983      28.461
  H      395.614      76.047      26.023
  H      396.044      74.853      27.268
  H      397.218      75.276      25.991
  H      396.885      69.070      34.678
  H      398.176      69.902      35.510
  H      398.410      69.346      33.870

 3  4  5  6  7  8  9  10  11  12  23  26  30  31 0
 6-311+G(2d,p)
 ****
 33  35  36  37  38 0
 6-311+G(2d,p)
 ****
 1  2  13  14  15  16  17  18  19  20  21  22  24  25 0
 3-21G
 ****
 27  28  29  32  34  39  40  41  42  43  44  45  46  47  48  49 0
 3-21G
 ****


