%nproc=1
%NoSave
%Mem=1900MB
#P OB98/GEN NMR

erre ene a

0 1
  C      174.907     414.485     258.698
  O      174.998     415.367     259.802
  H      174.070     414.792     258.067
  H      174.740     413.460     259.043
  H      175.825     414.524     258.100
  P      176.122     415.018     260.897
  C      174.179     414.594     262.590
  O      175.375     415.303     262.292
  C      173.527     415.180     263.834
  O      172.218     414.613     264.038
  C      174.294     414.910     265.127
  O      175.410     415.771     265.295
  C      173.206     415.189     266.149
  O      173.017     416.609     266.288
  C      171.985     414.529     265.472
  N      171.782     413.135     265.876
  C      171.709     412.882     267.256
  O      171.822     413.808     268.070
  N      171.545     411.584     267.685
  C      171.448     410.619     266.815
  N      171.304     409.357     267.296
  C      171.502     410.843     265.361
  C      171.666     412.104     264.966
  O      177.140     416.253     260.796
  O      176.765     413.674     260.784
  H      173.900     417.003     266.377
  H      177.807     416.197     261.525
  H      171.431     410.012     264.678
  H      171.724     412.344     263.909
  H      171.060     415.095     265.687
  H      173.442     414.799     267.140
  H      174.590     413.858     265.206
  H      173.395     416.264     263.665
  H      171.325     409.232     268.306
  H      174.427     413.534     262.753
  H      171.398     408.536     266.717
  H      173.484     414.670     261.745
  P      176.805     415.093     265.736
  C      176.819     414.467     268.261
  O      177.038     415.472     267.278
  O      177.895     415.990     264.971
  O      176.938     413.640     265.398
  H      178.628     415.451     264.635
  H      177.014     414.870     269.233
  H      177.475     413.641     268.079
  H      175.803     414.134     268.210

 6  7  8  9  10  11  12  13  14  15  16  26  30  31  32  33  35 0
 6-311+G(2d,p)
 ****
 37  38 0
 6-311+G(2d,p)
 ****
 1  2  3  4  5  17  18  19  20  21  22  23  24  25 0
 3-21G
 ****
 27  28  29  34  36  39  40  41  42  43  44  45  46 0
 3-21G
 ****


