%nproc=1
%NoSave
%Mem=1900MB
#P OB98/GEN NMR

erre ene a

0 1
  C       42.059      68.898      51.135
  O       42.366      69.434      52.406
  H       41.597      67.916      51.273
  H       42.972      68.772      50.548
  H       41.357      69.542      50.600
  P       42.914      70.937      52.497
  C       45.152      70.474      53.695
  O       43.842      71.016      53.801
  C       45.972      70.857      54.925
  O       46.111      72.292      55.005
  C       45.340      70.429      56.243
  O       45.515      69.044      56.469
  C       46.076      71.332      57.219
  O       47.372      70.799      57.536
  C       46.200      72.639      56.405
  N       45.190      73.632      56.769
  C       45.663      74.869      57.195
  O       46.859      75.135      57.303
  N       44.705      75.792      57.524
  C       43.361      75.566      57.577
  O       42.551      76.400      57.966
  C       42.921      74.233      57.141
  C       43.840      73.343      56.761
  O       41.884      72.009      52.389
  O       43.975      71.023      51.299
  H       47.768      70.519      56.688
  H       43.591      71.533      50.563
  H       45.028      76.689      57.847
  H       41.861      74.021      57.155
  H       43.535      72.354      56.443
  H       47.190      73.087      56.555
  H       45.539      71.448      58.160
  H       44.276      70.691      56.253
  H       46.976      70.426      54.816
  H       45.629      70.881      52.798
  H       45.080      69.386      53.598
  P       44.334      68.187      57.124
  C       46.334      66.801      57.949
  O       44.952      66.788      57.605
  O       43.091      68.080      56.305
  O       44.038      68.941      58.505
  H       43.114      69.256      58.510
  H       46.635      65.820      58.253
  H       46.495      67.489      58.753
  H       46.910      67.104      57.100

 6  7  8  9  10  11  12  13  14  15  16  26  31  32  33  34  35 0
 6-311+G(2d,p)
 ****
 36  37 0
 6-311+G(2d,p)
 ****
 1  2  3  4  5  17  18  19  20  21  22  23  24  25 0
 3-21G
 ****
 27  28  29  30  38  39  40  41  42  43  44  45 0
 3-21G
 ****


