%nproc=1
%NoSave
%Mem=1900MB
#P OB98/GEN NMR

erre ene a

0 1
  C     -898.950     200.256    -865.698
  O     -898.660     200.612    -864.360
  H     -900.000     200.495    -865.910
  H     -898.810     199.177    -865.849
  H     -898.310     200.824    -866.382
  P     -897.200     200.224    -863.822
  C     -895.930     197.942    -863.675
  O     -897.100     198.640    -864.102
  C     -896.320     196.640    -862.984
  O     -897.230     195.881    -863.842
  C     -895.170     195.682    -862.666
  O     -894.420     196.098    -861.535
  C     -895.940     194.421    -862.435
  O     -896.590     194.464    -861.144
  C     -896.980     194.459    -863.580
  N     -896.510     193.804    -864.799
  C     -896.780     192.439    -864.931
  O     -897.400     191.844    -864.044
  N     -896.350     191.774    -866.043
  C     -895.710     192.407    -866.979
  N     -895.280     191.704    -868.055
  C     -895.390     193.868    -866.895
  C     -895.830     194.489    -865.778
  O     -897.350     200.304    -862.225
  O     -896.060     201.035    -864.375
  H     -897.330     193.821    -861.178
  H     -896.540     199.941    -861.798
  H     -894.840     194.349    -867.700
  H     -895.630     195.549    -865.677
  H     -897.920     194.016    -863.272
  H     -895.300     193.533    -862.440
  H     -894.530     195.581    -863.550
  H     -896.900     196.899    -862.063
  H     -895.440     190.703    -868.047
  H     -895.390     198.577    -862.970
  H     -894.650     192.070    -868.752
  H     -895.290     197.724    -864.528
  P     -892.838     195.789    -861.564
  C     -891.386     193.654    -861.849
  O     -892.675     194.195    -861.690
  O     -892.385     196.111    -860.045
  O     -892.063     196.606    -862.573
  H     -891.483     196.471    -860.052
  H     -891.452     192.588    -861.917
  H     -890.781     193.921    -861.008
  H     -890.944     194.041    -862.743

 6  7  8  9  10  11  12  13  14  15  16  26  30  31  32  33  35 0
 6-311+G(2d,p)
 ****
 37  38 0
 6-311+G(2d,p)
 ****
 1  2  3  4  5  17  18  19  20  21  22  23  24  25 0
 3-21G
 ****
 27  28  29  34  36  39  40  41  42  43  44  45  46 0
 3-21G
 ****


