%nproc=1
%NoSave
%Mem=1900MB
#P OB98/GEN NMR

erre ene a

0 1
  C       -4.081    -201.673    -483.874
  O       -3.271    -202.746    -483.443
  H       -4.457    -201.901    -484.874
  H       -3.498    -200.751    -483.923
  H       -4.934    -201.541    -483.203
  P       -2.588    -202.657    -481.994
  C       -4.644    -203.966    -481.110
  O       -3.821    -202.820    -480.971
  C       -4.793    -204.678    -479.769
  O       -3.545    -205.266    -479.344
  C       -5.203    -203.777    -478.608
  O       -6.562    -203.376    -478.646
  C       -4.906    -204.700    -477.442
  O       -5.934    -205.701    -477.343
  C       -3.560    -205.317    -477.890
  N       -2.405    -204.611    -477.338
  C       -2.303    -204.572    -475.943
  O       -3.158    -205.104    -475.234
  N       -1.246    -203.900    -475.373
  C       -0.383    -203.298    -476.133
  N        0.639    -202.641    -475.515
  C       -0.464    -203.298    -477.606
  C       -1.485    -203.963    -478.135
  O       -1.708    -201.474    -481.755
  O       -1.837    -204.059    -481.815
  H       -6.071    -206.055    -478.240
  H       -1.389    -204.052    -480.935
  H        0.265    -202.755    -478.190
  H       -1.616    -204.006    -479.212
  H       -3.500    -206.372    -477.602
  H       -4.867    -204.185    -476.482
  H       -4.541    -202.904    -478.539
  H       -5.505    -205.501    -479.910
  H        0.666    -202.659    -474.504
  H       -4.185    -204.627    -481.854
  H        1.312    -202.084    -476.023
  H       -5.639    -203.675    -481.459
  P       -6.981    -202.127    -477.726
  C       -6.786    -200.241    -479.524
  O       -6.254    -200.844    -478.353
  O       -6.187    -202.399    -476.365
  O       -8.450    -201.959    -477.511
  H       -6.773    -202.809    -475.699
  H       -6.180    -199.404    -479.801
  H       -7.785    -199.910    -479.332
  H       -6.794    -200.955    -480.321

 6  7  8  9  10  11  12  13  14  15  16  26  30  31  32  33  35 0
 6-311+G(2d,p)
 ****
 37  38 0
 6-311+G(2d,p)
 ****
 1  2  3  4  5  17  18  19  20  21  22  23  24  25 0
 3-21G
 ****
 27  28  29  34  36  39  40  41  42  43  44  45  46 0
 3-21G
 ****


