%nproc=1
%NoSave
%Mem=1900MB
#P OB98/GEN NMR

erre ene a

0 1
  C     -145.441    -255.064      91.010
  O     -144.986    -253.887      90.376
  H     -144.778    -255.888      90.737
  H     -146.451    -255.302      90.670
  H     -145.432    -254.957      92.098
  P     -145.597    -252.477      90.830
  C     -144.506    -252.328      93.161
  O     -144.529    -251.824      91.835
  C     -143.710    -251.400      94.085
  O     -143.953    -251.793      95.466
  C     -142.192    -251.445      93.855
  O     -141.672    -250.147      94.175
  C     -141.753    -252.458      94.893
  O     -140.368    -252.376      95.144
  C     -142.675    -252.091      96.059
  N     -142.765    -253.156      97.057
  C     -141.610    -253.434      97.774
  O     -140.539    -252.855      97.581
  N     -141.701    -254.436      98.700
  C     -142.801    -255.211      98.926
  O     -142.819    -256.120      99.747
  C     -143.982    -254.902      98.106
  C     -143.914    -253.902      97.225
  O     -146.996    -252.513      91.344
  O     -145.461    -251.552      89.530
  H     -140.089    -253.097      95.750
  H     -146.179    -250.891      89.514
  H     -140.874    -254.643      99.236
  H     -144.867    -255.505      98.255
  H     -144.768    -253.648      96.605
  H     -142.317    -251.186      96.563
  H     -141.960    -253.477      94.549
  H     -141.918    -251.726      92.836
  H     -144.097    -250.381      93.972
  H     -144.036    -253.318      93.137
  H     -145.532    -252.431      93.531
  P     -140.951    -249.224      93.079
  C     -142.903    -248.045      91.881
  O     -141.849    -247.917      92.831
  O     -140.563    -249.944      91.828
  O     -139.656    -248.647      93.824
  H     -138.956    -248.461      93.170
  H     -143.427    -247.115      91.802
  H     -143.580    -248.810      92.200
  H     -142.494    -248.306      90.927

 6  7  8  9  10  11  12  13  14  15  16  26  31  32  33  34  35 0
 6-311+G(2d,p)
 ****
 36  37 0
 6-311+G(2d,p)
 ****
 1  2  3  4  5  17  18  19  20  21  22  23  24  25 0
 3-21G
 ****
 27  28  29  30  38  39  40  41  42  43  44  45 0
 3-21G
 ****


