%nproc=1
%NoSave
%Mem=1900MB
#P OB98/GEN NMR

erre ene a

0 1
  C     -633.236    1221.200    -155.511
  O     -633.314    1220.123    -156.422
  H     -634.223    1221.663    -155.434
  H     -632.531    1221.947    -155.876
  H     -632.936    1220.851    -154.519
  P     -632.041    1219.175    -156.616
  C     -632.834    1217.320    -155.010
  O     -631.865    1218.323    -155.265
  C     -632.493    1216.542    -153.731
  O     -631.193    1215.933    -153.899
  C     -632.444    1217.427    -152.475
  O     -632.967    1216.682    -151.373
  C     -630.963    1217.668    -152.276
  O     -630.637    1217.939    -150.917
  C     -630.351    1216.374    -152.809
  N     -625.536    1216.669    -151.313
  C     -626.676    1216.362    -150.592
  N     -626.513    1216.122    -149.275
  N     -627.872    1216.307    -151.121
  C     -627.879    1216.554    -152.451
  C     -626.823    1216.863    -153.276
  C     -625.511    1216.942    -152.671
  O     -624.464    1217.220    -153.257
  N     -627.243    1217.060    -154.565
  C     -628.551    1216.867    -154.519
  N     -628.983    1216.569    -153.266
  O     -630.798    1219.873    -157.074
  O     -632.519    1218.080    -157.678
  H     -629.710    1218.251    -150.898
  H     -632.126    1218.248    -158.553
  H     -624.643    1216.707    -150.856
  H     -629.214    1216.936    -155.371
  H     -630.326    1215.581    -152.051
  H     -630.647    1218.526    -152.881
  H     -625.615    1216.122    -148.807
  H     -633.010    1218.348    -152.598
  H     -627.325    1215.869    -148.728
  H     -633.217    1215.733    -153.613
  H     -632.854    1216.632    -155.863
  H     -633.823    1217.787    -154.914
  P     -634.544    1216.740    -151.068
  C     -635.072    1214.238    -150.837
  O     -635.229    1215.405    -151.637
  O     -635.218    1218.011    -151.466
  O     -634.609    1216.530    -149.484
  H     -635.348    1217.058    -149.119
  H     -635.565    1213.414    -151.308
  H     -635.502    1214.407    -149.872
  H     -634.031    1214.017    -150.729

 6  7  8  9  10  11  12  13  14  15  26  29  33  34 0
 6-311+G(2d,p)
 ****
 36  38  39  40  41 0
 6-311+G(2d,p)
 ****
 1  2  3  4  5  16  17  18  19  20  21  22  23  24  25 0
 3-21G
 ****
 27  28  30  31  32  35  37  42  43  44  45  46  47 0
 3-21G
 ****
 48  49 0
 3-21G
 ****


