%nproc=1
%NoSave
%Mem=1900MB
#P OB98/GEN NMR

erre ene a

0 1
  C      171.246     176.694    -282.209
  O      170.213     176.033    -281.496
  P      170.624     175.109    -280.254
  C      169.636     173.019    -281.444
  O      169.675     173.813    -280.265
  C      168.281     172.321    -281.584
  O      168.094     171.391    -280.482
  C      167.085     173.284    -281.572
  O      166.053     172.771    -282.427
  C      166.577     173.198    -280.147
  O      165.205     173.576    -280.057
  C      166.852     171.724    -279.836
  N      164.303     171.822    -275.467
  C      163.828     171.898    -276.761
  N      162.499     172.115    -276.903
  N      164.581     171.762    -277.820
  C      165.890     171.561    -277.525
  C      166.478     171.452    -276.284
  C      165.632     171.615    -275.122
  O      165.995     171.586    -273.947
  N      167.824     171.206    -276.383
  C      168.065     171.206    -277.681
  N      166.930     171.454    -278.413
  O      170.096     175.946    -278.994
  O      172.086     174.832    -280.136
  H      165.026     173.773    -279.118
  H      170.852     176.366    -278.536
  H      163.684     171.943    -274.680
  H      169.035     171.062    -278.138
  H      166.074     171.074    -280.256
  H      167.164     173.859    -279.499
  H      161.877     172.295    -276.131
  H      167.328     174.311    -281.867
  H      162.132     172.217    -277.840
  H      168.288     171.725    -282.506
  H      170.424     172.267    -281.393
  H      169.825     173.653    -282.316
  P      165.770     173.613    -283.764
  C      163.250     173.879    -283.152
  O      164.212     173.417    -284.087
  O      166.502     172.755    -284.903
  O      166.256     175.022    -283.719
  H      166.748     173.324    -285.654
  H      162.652     174.661    -283.619
  H      163.714     174.272    -282.240
  H      162.595     173.044    -282.876
  H      170.819     177.269    -283.004
  H      171.920     175.969    -282.615
  H      171.778     177.343    -281.546

 3  4  5  6  7  8  9  10  11  12  23  26  30  31 0
 6-311+G(2d,p)
 ****
 33  35  36  37  38 0
 6-311+G(2d,p)
 ****
 1  2  13  14  15  16  17  18  19  20  21  22  24  25 0
 3-21G
 ****
 27  28  29  32  34  39  40  41  42  43  44  45  46  47  48  49 0
 3-21G
 ****


