%nproc=1
%NoSave
%Mem=1900MB
#P OB98/GEN NMR

erre ene a

0 1
  C     -125.072    -155.449     -35.356
  O     -125.303    -156.575     -34.504
  P     -125.156    -158.030     -35.164
  C     -126.827    -159.915     -35.778
  O     -126.609    -158.516     -35.648
  C     -128.321    -160.242     -35.875
  O     -129.027    -159.802     -34.678
  C     -129.020    -159.583     -37.068
  O     -130.047    -160.475     -37.519
  C     -129.673    -158.361     -36.452
  O     -130.724    -157.857     -37.272
  C     -130.098    -158.932     -35.101
  N     -132.768    -154.699     -34.090
  C     -132.750    -155.522     -35.162
  N     -131.991    -156.621     -35.362
  C     -131.217    -156.863     -34.287
  C     -131.121    -156.109     -33.130
  C     -131.945    -154.974     -33.049
  N     -131.946    -154.118     -31.971
  N     -130.182    -156.651     -32.275
  C     -129.719    -157.708     -32.909
  N     -130.335    -157.896     -34.115
  O     -124.841    -158.972     -33.907
  O     -124.079    -158.118     -36.196
  H     -130.979    -156.973     -36.932
  H     -123.907    -159.251     -33.928
  H     -133.432    -155.261     -35.967
  H     -128.939    -158.363     -32.549
  H     -131.019    -159.528     -35.169
  H     -128.927    -157.565     -36.323
  H     -128.355    -159.329     -37.901
  H     -128.432    -161.331     -35.939
  H     -126.400    -160.440     -34.918
  H     -132.547    -153.309     -32.006
  H     -131.305    -154.286     -31.211
  H     -126.280    -160.281     -36.655
  P     -129.789    -161.216     -38.917
  C     -129.949    -160.523     -41.412
  O     -130.171    -160.164     -40.062
  O     -130.962    -162.304     -38.991
  O     -128.436    -161.842     -39.035
  H     -130.691    -163.052     -39.557
  H     -130.793    -160.170     -42.012
  H     -129.857    -161.606     -41.542
  H     -129.037    -160.039     -41.766
  H     -125.201    -154.546     -34.797
  H     -125.768    -155.468     -36.169
  H     -124.074    -155.491     -35.740

 3  4  5  6  7  8  9  10  11  12  22  25  29  30  31  32 0
 6-311+G(2d,p)
 ****
 33  36  37 0
 6-311+G(2d,p)
 ****
 1  2  13  14  15  16  17  18  19  20  21  23  24  26 0
 3-21G
 ****
 27  28  34  35  38  39  40  41  42  43  44  45  46  47  48 0
 3-21G
 ****


