%nproc=1
%NoSave
%Mem=1900MB
#P OB98/GEN NMR

erre ene a

0 1
  C       95.980    -287.833      58.458
  O       96.227    -288.685      59.558
  H       95.274    -288.325      57.783
  H       96.906    -287.635      57.913
  H       95.543    -286.893      58.803
  P       97.323    -288.196      60.622
  C       97.703    -288.568      63.166
  O       96.805    -288.657      62.067
  C       96.967    -288.015      64.383
  O       96.400    -286.722      64.068
  C       95.794    -288.871      64.840
  O       96.199    -289.999      65.597
  C       95.014    -287.867      65.670
  O       95.514    -287.784      67.012
  C       95.240    -286.551      64.906
  N       94.059    -286.157      64.140
  C       92.955    -285.768      64.892
  O       92.947    -285.744      66.121
  N       91.835    -285.439      64.179
  C       91.699    -285.511      62.824
  O       90.647    -285.257      62.251
  C       92.893    -285.948      62.082
  C       94.002    -286.250      62.763
  O       97.132    -286.608      60.637
  O       98.728    -288.589      60.305
  H       97.875    -286.182      60.170
  H       95.461    -288.691      67.374
  H       91.025    -285.152      64.703
  H       92.821    -286.019      61.004
  H       94.892    -286.584      62.242
  H       95.477    -285.737      65.605
  H       93.964    -288.148      65.735
  H       95.185    -289.172      63.979
  H       97.691    -287.886      65.199
  H       98.528    -287.893      62.915
  H       98.114    -289.562      63.372
  P       95.267    -291.305      65.551
  C       95.675    -293.808      66.251
  O       96.216    -292.532      65.953
  O       95.054    -291.455      63.972
  O       94.017    -291.163      66.349
  H       95.795    -291.076      63.469
  H       96.468    -294.484      66.494
  H       95.140    -294.176      65.400
  H       95.008    -293.727      67.084

 6  7  8  9  10  11  12  13  14  15  16  27  31  32  33  34  35 0
 6-311+G(2d,p)
 ****
 36  37 0
 6-311+G(2d,p)
 ****
 1  2  3  4  5  17  18  19  20  21  22  23  24  25 0
 3-21G
 ****
 26  28  29  30  38  39  40  41  42  43  44  45 0
 3-21G
 ****


