%nproc=1
%NoSave
%Mem=1900MB
#P OB98/GEN NMR

erre ene a

0 1
  C      -29.885     868.798    -670.003
  O      -28.510     868.740    -670.340
  H      -30.287     869.754    -670.352
  H      -30.005     868.748    -668.920
  H      -30.437     867.986    -670.486
  P      -27.718     867.370    -670.124
  C      -26.229     867.935    -672.165
  O      -26.272     867.546    -670.787
  C      -24.781     868.146    -672.608
  O      -24.281     869.406    -672.124
  C      -23.819     867.084    -672.073
  O      -23.952     865.864    -672.785
  C      -22.484     867.800    -672.266
  O      -22.047     867.709    -673.629
  C      -22.865     869.257    -671.914
  N      -22.496     869.627    -670.545
  C      -21.685     870.756    -670.394
  O      -21.254     871.404    -671.363
  N      -21.379     871.108    -669.109
  C      -21.721     870.416    -667.983
  O      -21.364     870.744    -666.857
  C      -22.548     869.218    -668.192
  C      -22.896     868.882    -669.447
  O      -28.443     866.118    -670.541
  O      -27.389     867.356    -668.551
  H      -22.783     868.034    -674.185
  H      -28.031     866.789    -668.089
  H      -20.781     871.911    -668.988
  H      -22.837     868.627    -667.317
  H      -23.507     867.998    -669.624
  H      -22.378     869.962    -672.608
  H      -21.687     867.387    -671.651
  H      -23.971     866.932    -670.999
  H      -24.766     868.162    -673.709
  H      -26.789     868.867    -672.286
  H      -26.720     867.154    -672.760
  P      -23.618     864.465    -672.075
  C      -26.038     863.628    -671.868
  O      -24.778     863.428    -672.499
  O      -23.358     864.537    -670.610
  O      -22.342     863.925    -672.868
  H      -21.538     864.017    -672.311
  H      -26.732     862.892    -672.217
  H      -26.405     864.605    -672.105
  H      -25.924     863.537    -670.808

 6  7  8  9  10  11  12  13  14  15  16  26  31  32  33  34  35 0
 6-311+G(2d,p)
 ****
 36  37 0
 6-311+G(2d,p)
 ****
 1  2  3  4  5  17  18  19  20  21  22  23  24  25 0
 3-21G
 ****
 27  28  29  30  38  39  40  41  42  43  44  45 0
 3-21G
 ****


