%nproc=1
%NoSave
%Mem=1900MB
#P OB98/GEN NMR

erre ene a

0 1
  C     -153.887    -228.943     680.549
  O     -154.016    -227.655     679.976
  H     -152.951    -228.982     681.112
  H     -153.859    -229.700     679.761
  H     -154.720    -229.145     681.228
  P     -155.405    -227.323     679.245
  C     -156.527    -225.462     680.722
  O     -156.439    -226.840     680.383
  C     -156.940    -225.314     682.184
  O     -155.911    -225.790     683.071
  C     -157.152    -223.871     682.624
  O     -158.318    -223.299     682.074
  C     -157.202    -224.048     684.133
  O     -158.487    -224.529     684.558
  C     -156.115    -225.127     684.349
  N     -154.870    -224.572     684.872
  C     -154.792    -224.462     686.272
  O     -155.731    -224.835     686.974
  N     -153.669    -223.909     686.820
  C     -152.693    -223.521     686.056
  N     -151.611    -222.970     686.668
  C     -152.729    -223.645     684.583
  C     -153.830    -224.168     684.066
  O     -155.957    -228.778     678.864
  O     -155.311    -226.376     678.097
  H     -158.438    -224.619     685.526
  H     -155.999    -229.389     679.620
  H     -151.888    -223.314     683.989
  H     -153.937    -224.288     682.996
  H     -156.467    -225.895     685.055
  H     -157.022    -223.108     684.658
  H     -156.266    -223.264     682.382
  H     -157.844    -225.918     682.349
  H     -151.633    -222.884     687.673
  H     -157.226    -224.944     680.067
  H     -150.807    -222.602     686.173
  H     -155.536    -225.019     680.563
  P     -158.220    -222.062     681.060
  C     -159.708    -223.295     679.361
  O     -158.453    -222.655     679.585
  O     -156.993    -221.220     681.204
  O     -159.585    -221.258     681.325
  H     -160.391    -221.772     681.154
  H     -159.753    -223.649     678.352
  H     -160.500    -222.596     679.529
  H     -159.812    -224.121     680.034

 6  7  8  9  10  11  12  13  14  15  16  26  30  31  32  33  35 0
 6-311+G(2d,p)
 ****
 37  38 0
 6-311+G(2d,p)
 ****
 1  2  3  4  5  17  18  19  20  21  22  23  24  25 0
 3-21G
 ****
 27  28  29  34  36  39  40  41  42  43  44  45  46 0
 3-21G
 ****


