%nproc=1
%NoSave
%Mem=1900MB
#P OB98/GEN NMR

erre ene a

0 1
  C     -411.023    -224.544     308.770
  O     -409.927    -225.287     309.270
  H     -411.727    -225.236     308.299
  H     -410.684    -223.822     308.024
  H     -411.531    -224.030     309.591
  P     -408.754    -224.447     309.974
  C     -409.488    -225.468     312.237
  O     -409.239    -224.283     311.494
  C     -408.676    -225.471     313.529
  O     -407.308    -225.823     313.258
  C     -408.637    -224.127     314.248
  O     -409.797    -223.958     315.046
  C     -407.391    -224.294     315.107
  O     -407.717    -225.053     316.288
  C     -406.460    -225.115     314.199
  N     -401.781    -223.007     314.292
  C     -402.531    -223.563     315.267
  N     -403.788    -224.053     315.183
  C     -404.261    -223.939     313.931
  C     -403.608    -223.395     312.835
  C     -402.304    -222.919     313.049
  N     -401.540    -222.353     312.052
  N     -404.408    -223.442     311.714
  C     -405.500    -224.061     312.111
  N     -405.476    -224.352     313.454
  O     -408.344    -223.195     309.274
  O     -407.611    -225.563     310.095
  H     -408.109    -225.892     315.985
  H     -407.996    -226.419     310.353
  H     -402.065    -223.619     316.245
  H     -406.327    -224.345     311.468
  H     -405.901    -225.869     314.766
  H     -406.980    -223.342     315.444
  H     -408.483    -223.297     313.550
  H     -409.088    -226.251     314.183
  H     -409.230    -226.351     311.638
  H     -400.703    -221.866     312.331
  H     -401.982    -222.168     311.163
  H     -410.557    -225.502     312.458
  P     -410.120    -222.554     315.749
  C     -411.290    -221.853     313.568
  O     -410.304    -221.517     314.541
  O     -409.150    -222.153     316.806
  O     -411.608    -222.724     316.306
  H     -411.800    -222.034     316.971
  H     -411.323    -221.093     312.816
  H     -412.247    -221.928     314.041
  H     -411.041    -222.791     313.117

 6  7  8  9  10  11  12  13  14  15  25  28  32  33  34  35 0
 6-311+G(2d,p)
 ****
 36  39  40 0
 6-311+G(2d,p)
 ****
 1  2  3  4  5  16  17  18  19  20  21  22  23  24 0
 3-21G
 ****
 26  27  29  30  31  37  38  41  42  43  44  45  46  47 0
 3-21G
 ****
 48 0
 3-21G
 ****


