%nproc=1
%NoSave
%Mem=1900MB
#P OB98/GEN NMR

erre ene a

0 1
  C     -787.040    1101.931     341.435
  O     -785.751    1101.552     340.965
  P     -784.506    1102.575     341.146
  C     -782.979    1100.653     342.057
  O     -783.147    1101.736     341.139
  C     -781.704    1099.860     341.737
  O     -781.943    1098.929     340.665
  C     -780.533    1100.729     341.257
  O     -779.910    1101.407     342.357
  C     -779.638    1099.679     340.617
  O     -778.831    1099.001     341.583
  C     -780.678    1098.714     339.987
  N     -780.804    1098.903     338.529
  C     -780.388    1097.848     337.755
  O     -779.850    1096.834     338.198
  N     -780.541    1098.001     336.394
  C     -781.021    1099.148     335.777
  O     -781.116    1099.243     334.548
  C     -781.381    1100.257     336.656
  C     -781.240    1100.094     337.985
  O     -784.630    1102.977     342.689
  O     -784.522    1103.772     340.267
  H     -778.417    1098.244     341.146
  H     -784.266    1103.866     342.824
  H     -780.256    1097.255     335.800
  H     -781.738    1101.183     336.207
  H     -781.510    1100.896     338.665
  H     -780.404    1097.674     340.197
  H     -778.946    1100.135     339.863
  H     -780.873    1101.431     340.508
  H     -781.422    1099.284     342.636
  H     -783.841    1099.983     341.998
  H     -782.937    1101.072     343.086
  P     -779.407    1102.901     342.068
  C     -779.762    1104.162     344.341
  O     -778.893    1103.457     343.490
  O     -780.813    1103.667     341.832
  O     -778.451    1102.996     340.932
  H     -781.504    1103.274     342.359
  H     -780.791    1103.787     344.267
  H     -779.732    1105.216     344.104
  H     -779.435    1104.016     345.375
  H     -787.738    1101.144     341.236
  H     -787.355    1102.822     340.933
  H     -786.997    1102.111     342.489

 3  4  5  6  7  8  9  10  11  12  13  23  28  29  30  31  32 0
 6-311+G(2d,p)
 ****
 33  34 0
 6-311+G(2d,p)
 ****
 1  2  14  15  16  17  18  19  20  21  22  24  25  26 0
 3-21G
 ****
 27  35  36  37  38  39  40  41  42  43  44  45 0
 3-21G
 ****


