%nproc=1
%NoSave
%Mem=1900MB
#P OB98/GEN NMR

erre ene a

0 1
  C     -218.213     622.467     408.901
  O     -218.021     622.529     407.503
  H     -217.554     621.696     409.306
  H     -219.247     622.196     409.128
  H     -217.962     623.425     409.366
  P     -218.894     623.558     406.629
  C     -218.671     624.612     404.296
  O     -218.131     623.670     405.211
  C     -217.702     624.879     403.146
  O     -216.480     625.472     403.674
  C     -217.300     623.621     402.362
  O     -217.395     623.863     400.955
  C     -215.843     623.401     402.746
  O     -215.115     622.666     401.774
  C     -215.387     624.851     402.962
  N     -214.126     624.930     403.700
  C     -212.987     624.479     403.022
  O     -213.085     624.048     401.870
  N     -211.794     624.464     403.685
  C     -211.735     624.827     404.934
  N     -210.522     624.760     405.539
  C     -212.925     625.289     405.690
  C     -214.072     625.320     405.023
  O     -219.172     624.862     407.302
  O     -220.225     622.750     406.256
  H     -214.161     622.802     401.926
  H     -220.940     623.392     406.039
  H     -212.826     625.574     406.729
  H     -214.991     625.637     405.491
  H     -215.263     625.378     402.006
  H     -215.798     622.855     403.696
  H     -217.913     622.749     402.616
  H     -218.143     625.640     402.484
  H     -209.738     624.436     404.986
  H     -218.893     625.545     404.844
  H     -210.366     624.996     406.506
  H     -219.608     624.207     403.891
  P     -218.283     622.823     400.115
  C     -219.720     622.960     397.954
  O     -218.658     623.514     398.710
  O     -219.670     622.780     400.905
  O     -217.667     621.468     400.012
  H     -219.769     621.917     401.354
  H     -219.848     623.523     397.053
  H     -220.622     622.994     398.528
  H     -219.491     621.944     397.709

 6  7  8  9  10  11  12  13  14  15  16  26  30  31  32  33  35 0
 6-311+G(2d,p)
 ****
 37  38 0
 6-311+G(2d,p)
 ****
 1  2  3  4  5  17  18  19  20  21  22  23  24  25 0
 3-21G
 ****
 27  28  29  34  36  39  40  41  42  43  44  45  46 0
 3-21G
 ****


