%nproc=1
%NoSave
%Mem=1900MB
#P OB98/GEN NMR

erre ene a

0 1
  C       71.240     296.192    -135.743
  O       70.219     295.555    -136.495
  P       68.710     295.715    -135.957
  C       68.786     293.352    -134.843
  O       68.585     294.749    -134.684
  C       68.599     292.649    -133.496
  O       69.495     293.204    -132.513
  C       67.195     292.775    -132.918
  O       66.328     291.824    -133.505
  C       67.460     292.536    -131.432
  O       67.562     291.127    -131.152
  C       68.807     293.240    -131.229
  N       67.038     296.220    -127.545
  C       66.821     294.874    -127.781
  N       66.061     294.223    -126.875
  N       67.312     294.228    -128.808
  C       68.045     295.011    -129.635
  C       68.315     296.358    -129.518
  C       67.813     297.045    -128.353
  O       68.055     298.208    -128.046
  N       69.074     296.809    -130.567
  C       69.285     295.732    -131.297
  N       68.700     294.612    -130.767
  O       67.847     294.988    -137.088
  O       68.270     297.122    -135.706
  H       67.947     291.005    -130.264
  H       67.465     295.644    -137.705
  H       66.651     296.656    -126.730
  H       69.869     295.710    -132.204
  H       69.444     292.711    -130.510
  H       66.651     292.920    -130.804
  H       65.633     294.657    -126.078
  H       66.810     293.793    -133.063
  H       65.892     293.234    -127.037
  H       68.867     291.591    -133.632
  H       69.803     293.174    -135.203
  H       68.076     292.968    -135.579
  P       64.755     292.143    -133.477
  C       64.387     290.595    -131.424
  O       64.249     291.890    -131.979
  O       64.121     290.929    -134.311
  O       64.378     293.459    -134.068
  H       63.358     291.246    -134.824
  H       64.507     290.688    -130.343
  H       65.250     290.065    -131.834
  H       63.482     290.017    -131.632
  H       72.189     296.010    -136.203
  H       71.246     295.801    -134.747
  H       71.055     297.245    -135.712

 3  4  5  6  7  8  9  10  11  12  23  26  30  31 0
 6-311+G(2d,p)
 ****
 33  35  36  37  38 0
 6-311+G(2d,p)
 ****
 1  2  13  14  15  16  17  18  19  20  21  22  24  25 0
 3-21G
 ****
 27  28  29  32  34  39  40  41  42  43  44  45  46  47  48  49 0
 3-21G
 ****


