%nproc=1
%NoSave
%Mem=1900MB
#P OB98/GEN NMR

erre ene a

0 1
  C      254.268    -347.740     418.352
  O      255.148    -347.243     417.365
  H      254.641    -348.708     418.696
  H      253.273    -347.884     417.921
  H      254.215    -347.059     419.201
  P      254.887    -345.755     416.821
  C      256.554    -344.021     415.835
  O      256.135    -345.378     415.882
  C      258.044    -343.937     415.499
  O      258.811    -344.166     416.712
  C      258.496    -344.960     414.454
  O      259.462    -344.341     413.599
  C      259.171    -346.047     415.283
  O      260.138    -346.783     414.536
  C      259.742    -345.228     416.446
  N      259.952    -346.066     417.630
  C      261.238    -346.611     417.793
  O      262.122    -346.372     416.963
  N      261.474    -347.434     418.861
  C      260.497    -347.777     419.642
  N      260.790    -348.621     420.664
  C      259.109    -347.284     419.466
  C      258.918    -346.435     418.455
  O      255.117    -344.841     418.115
  O      253.550    -345.526     416.193
  H      260.785    -346.147     414.160
  H      254.549    -344.048     418.099
  H      258.323    -347.615     420.130
  H      257.933    -346.032     418.244
  H      260.703    -344.771     416.160
  H      258.412    -346.749     415.645
  H      257.678    -345.353     413.850
  H      258.268    -342.909     415.167
  H      261.742    -348.955     420.745
  H      256.384    -343.566     416.818
  H      260.093    -348.992     421.310
  H      255.960    -343.484     415.084
  P      259.170    -344.383     412.030
  C      260.051    -343.184     409.894
  O      260.216    -343.417     411.282
  O      257.778    -343.605     411.890
  O      259.093    -345.777     411.467
  H      257.060    -344.242     411.685
  H      260.821    -342.526     409.549
  H      259.095    -342.737     409.719
  H      260.113    -344.113     409.367

 6  7  8  9  10  11  12  13  14  15  16  26  30  31  32  33  35 0
 6-311+G(2d,p)
 ****
 37  38 0
 6-311+G(2d,p)
 ****
 1  2  3  4  5  17  18  19  20  21  22  23  24  25 0
 3-21G
 ****
 27  28  29  34  36  39  40  41  42  43  44  45  46 0
 3-21G
 ****


