%nproc=1
%NoSave
%Mem=1900MB
#P OB98/GEN NMR

erre ene a

0 1
  C       -6.983      15.904     -44.851
  O       -6.377      15.907     -46.127
  H       -7.304      14.886     -44.617
  H       -7.857      16.561     -44.844
  H       -6.265      16.232     -44.094
  P       -5.934      17.339     -46.706
  C       -7.320      19.347     -47.628
  O       -7.325      18.008     -47.156
  C       -8.397      19.528     -48.692
  O       -8.075      18.766     -49.878
  C       -9.786      19.054     -48.275
  O      -10.456      19.961     -47.417
  C      -10.452      18.968     -49.637
  O      -10.760      20.293     -50.109
  C       -9.326      18.324     -50.473
  N       -9.395      16.861     -50.497
  C       -9.967      16.278     -51.634
  O      -10.386      16.976     -52.555
  N      -10.084      14.910     -51.687
  C       -9.650      14.184     -50.704
  N       -9.795      12.836     -50.813
  C       -9.030      14.754     -49.495
  C       -8.935      16.081     -49.458
  O       -5.250      16.977     -48.107
  O       -5.095      18.179     -45.805
  H      -11.355      20.692     -49.448
  H       -5.071      17.804     -48.618
  H       -8.695      14.110     -48.695
  H       -8.490      16.573     -48.600
  H       -9.344      18.691     -51.506
  H      -11.388      18.410     -49.627
  H       -9.753      18.052     -47.834
  H       -8.408      20.587     -48.978
  H      -10.279      12.479     -51.627
  H       -6.333      19.558     -48.052
  H       -9.629      12.202     -50.043
  H       -7.508      20.037     -46.801
  P      -11.324      19.336     -46.219
  C      -13.455      17.847     -46.092
  O      -12.643      18.710     -46.878
  O      -11.869      20.627     -45.452
  O      -10.569      18.419     -45.308
  H      -11.935      20.461     -44.492
  H      -14.290      17.516     -46.673
  H      -13.807      18.375     -45.230
  H      -12.879      17.000     -45.781

 6  7  8  9  10  11  12  13  14  15  16  26  30  31  32  33  35 0
 6-311+G(2d,p)
 ****
 37  38 0
 6-311+G(2d,p)
 ****
 1  2  3  4  5  17  18  19  20  21  22  23  24  25 0
 3-21G
 ****
 27  28  29  34  36  39  40  41  42  43  44  45  46 0
 3-21G
 ****


