%nproc=1
%NoSave
%Mem=1900MB
#P OB98/GEN NMR

erre ene a

0 1
  C       -9.328     -21.843     -96.707
  O       -9.141     -23.165     -97.182
  P       -9.927     -23.596     -98.515
  C      -12.415     -23.434     -99.257
  O      -11.490     -23.470     -98.178
  C      -13.492     -24.497     -99.063
  O      -12.914     -25.819     -99.072
  C      -14.237     -24.395     -97.739
  O      -15.261     -23.414     -97.769
  C      -14.839     -25.787     -97.635
  O      -16.023     -25.873     -98.450
  C      -13.723     -26.664     -98.219
  N      -13.451     -30.311     -94.723
  C      -14.383     -30.114     -95.723
  N      -15.419     -30.979     -95.758
  N      -14.305     -29.159     -96.611
  C      -13.218     -28.364     -96.449
  C      -12.226     -28.461     -95.499
  C      -12.332     -29.516     -94.515
  O      -11.569     -29.709     -93.575
  N      -11.284     -27.481     -95.659
  C      -11.698     -26.792     -96.703
  N      -12.890     -27.262     -97.191
  O       -9.695     -25.178     -98.585
  O       -9.475     -22.905     -99.756
  H      -16.653     -25.214     -98.097
  H       -9.891     -25.505     -99.483
  H      -13.560     -31.059     -94.059
  H      -11.182     -25.940     -97.128
  H      -14.122     -27.470     -98.841
  H      -15.136     -26.047     -96.615
  H      -15.570     -31.697     -95.064
  H      -13.545     -24.235     -96.903
  H      -16.150     -30.821     -96.441
  H      -14.193     -24.428     -99.905
  H      -11.883     -23.618    -100.193
  H      -12.870     -22.439     -99.309
  P      -15.427     -22.504     -96.456
  C      -15.123     -23.102     -93.946
  O      -15.520     -23.533     -95.234
  O      -16.917     -21.937     -96.598
  O      -14.415     -21.415     -96.328
  H      -17.003     -21.088     -96.127
  H      -15.496     -23.817     -93.207
  H      -15.536     -22.116     -93.718
  H      -14.033     -23.069     -93.886
  H       -8.748     -21.698     -95.820
  H      -10.363     -21.686     -96.486
  H       -9.014     -21.147     -97.456

 3  4  5  6  7  8  9  10  11  12  23  26  30  31 0
 6-311+G(2d,p)
 ****
 33  35  36  37  38 0
 6-311+G(2d,p)
 ****
 1  2  13  14  15  16  17  18  19  20  21  22  24  25 0
 3-21G
 ****
 27  28  29  32  34  39  40  41  42  43  44  45  46  47  48  49 0
 3-21G
 ****


