%nproc=1
%NoSave
%Mem=1900MB
#P OB98/GEN NMR

erre ene a

0 1
  C      377.240      32.819     170.888
  O      378.062      31.750     171.370
  P      377.552      30.984     172.690
  C      378.502      32.863     174.223
  O      377.373      32.086     173.842
  C      378.108      33.919     175.256
  O      377.215      34.894     174.687
  C      377.376      33.365     176.470
  O      378.271      32.784     177.406
  C      376.744      34.629     177.035
  O      377.707      35.337     177.842
  C      376.412      35.430     175.761
  N      371.679      36.844     176.908
  C      372.870      37.129     177.552
  N      372.791      37.935     178.637
  N      374.033      36.677     177.162
  C      373.963      35.912     176.045
  C      372.845      35.553     175.324
  C      371.563      36.039     175.783
  O      370.474      35.784     175.271
  N      373.174      34.775     174.245
  C      374.492      34.683     174.298
  N      375.012      35.346     175.382
  O      378.848      30.169     173.158
  O      376.383      30.088     172.456
  H      378.281      35.835     177.229
  H      378.582      29.376     173.659
  H      370.809      37.211     177.256
  H      375.105      34.155     173.578
  H      376.677      36.489     175.871
  H      375.885      34.420     177.682
  H      371.938      38.378     178.944
  H      376.589      32.660     176.165
  H      373.660      38.183     179.095
  H      379.027      34.433     175.575
  H      378.928      33.352     173.349
  H      379.275      32.191     174.622
  P      378.289      31.183     177.508
  C      376.795      31.088     179.620
  O      376.937      30.775     178.252
  O      379.431      30.908     178.594
  O      378.574      30.485     176.213
  H      379.858      30.042     178.435
  H      377.162      32.092     179.843
  H      377.347      30.357     180.221
  H      375.738      31.030     179.891
  H      377.685      33.244     170.012
  H      377.153      33.571     171.644
  H      376.268      32.441     170.647

 3  4  5  6  7  8  9  10  11  12  23  26  30  31  33  0
 6-311+G(2d,p)
 ****
 35  36  37  38 0
 6-311+G(2d,p)
 ****
 1  2  13  14  15  16  17  18  19  20  21  22  24  25  27  28  29 0
 3-21G
 ****
 32  34  39  40  41  42  43  44  45  46  47  48  49 0
 3-21G
 ****


