%nproc=1
%NoSave
%Mem=1900MB
#P OB98/GEN NMR

erre ene a

0 1
  C      -68.658    -169.923      45.042
  O      -67.474    -170.203      45.770
  P      -67.440    -169.800      47.323
  C      -65.965    -170.482      49.354
  O      -66.352    -170.755      48.014
  C      -64.842    -171.421      49.781
  O      -65.298    -172.789      49.800
  C      -63.636    -171.415      48.849
  O      -62.768    -170.322      49.096
  C      -62.965    -172.723      49.232
  O      -62.202    -172.549      50.441
  C      -64.168    -173.639      49.487
  N      -62.774    -177.707      46.820
  C      -62.324    -177.257      48.047
  N      -61.319    -177.960      48.611
  N      -62.816    -176.216      48.665
  C      -63.811    -175.606      47.975
  C      -64.344    -175.958      46.755
  C      -63.782    -177.106      46.078
  O      -64.101    -177.521      44.969
  N      -65.347    -175.104      46.383
  C      -65.427    -174.237      47.372
  N      -64.486    -174.473      48.341
  O      -68.830    -170.364      47.881
  O      -67.280    -168.341      47.584
  H      -61.586    -173.307      50.494
  H      -69.040    -169.946      48.738
  H      -62.359    -178.511      46.382
  H      -66.132    -173.418      47.422
  H      -64.007    -174.297      50.347
  H      -62.271    -173.085      48.468
  H      -60.855    -178.734      48.158
  H      -63.945    -171.460      47.797
  H      -60.927    -177.617      49.479
  H      -64.541    -171.150      50.800
  H      -66.826    -170.618      50.012
  H      -65.637    -169.440      49.430
  P      -61.692    -169.981      47.953
  C      -60.595    -167.776      47.128
  O      -61.392    -168.415      48.105
  O      -62.552    -170.080      46.608
  O      -60.504    -170.882      47.935
  H      -61.977    -170.303      45.852
  H      -60.713    -166.693      47.233
  H      -60.901    -168.064      46.120
  H      -59.543    -168.031      47.282
  H      -68.538    -170.243      44.028
  H      -68.849    -168.870      45.063
  H      -69.481    -170.444      45.485

 3  4  5  6  7  8  9  10  11  12  23  26  30  31 0
 6-311+G(2d,p)
 ****
 33  35  36  37  38 0
 6-311+G(2d,p)
 ****
 1  2  13  14  15  16  17  18  19  20  21  22  24  25 0
 3-21G
 ****
 27  28  29  32  34  39  40  41  42  43  44  45  46  47  48  49 0
 3-21G
 ****


