%nproc=1
%NoSave
%Mem=1900MB
#P OB98/GEN NMR

erre ene a

0 1
  C      -75.586     189.197      86.403
  O      -74.754     189.852      87.338
  H      -75.595     189.780      85.477
  H      -76.608     189.132      86.783
  H      -75.207     188.195      86.180
  P      -74.457     189.137      88.742
  C      -76.871     189.790      89.366
  O      -75.515     189.724      89.794
  C      -77.786     189.993      90.571
  O      -79.162     190.106      90.141
  C      -77.755     188.840      91.570
  O      -76.575     188.879      92.347
  C      -79.046     189.102      92.334
  O      -78.868     190.147      93.304
  C      -79.989     189.569      91.199
  N      -80.854     188.497      90.702
  C      -82.131     188.437      91.249
  O      -82.538     189.221      92.103
  N      -82.919     187.405      90.808
  C      -82.527     186.403      89.965
  O      -83.186     185.386      89.772
  C      -81.194     186.561      89.364
  C      -80.424     187.577      89.765
  O      -73.036     189.163      89.195
  O      -74.974     187.636      88.516
  H      -74.209     187.056      88.342
  H      -79.674     190.151      93.857
  H      -83.832     187.323      91.234
  H      -80.870     185.822      88.641
  H      -79.426     187.696      89.358
  H      -80.630     190.390      91.549
  H      -79.395     188.220      92.875
  H      -77.845     187.883      91.043
  H      -77.506     190.936      91.058
  H      -77.125     188.846      88.870
  H      -76.981     190.611      88.650
  P      -75.722     187.553      92.622
  C      -77.848     186.444      93.527
  O      -76.471     186.706      93.758
  O      -74.267     187.779      92.874
  O      -75.940     186.663      91.306
  H      -75.069     186.405      90.947
  H      -78.245     185.876      94.342
  H      -77.958     185.889      92.619
  H      -78.378     187.370      93.446

 6  7  8  9  10  11  12  13  14  15  16  27  31  32  33  34  35 0
 6-311+G(2d,p)
 ****
 36  37 0
 6-311+G(2d,p)
 ****
 1  2  3  4  5  17  18  19  20  21  22  23  24  25 0
 3-21G
 ****
 26  28  29  30  38  39  40  41  42  43  44  45 0
 3-21G
 ****


