%nproc=1
%NoSave
%Mem=1900MB
#P OB98/GEN NMR

erre ene a

0 1
  C     -138.826     -57.150      -7.731
  O     -138.695     -56.884      -6.345
  P     -137.315     -56.243      -5.829
  C     -136.122     -58.392      -4.967
  O     -136.198     -57.386      -5.964
  C     -134.662     -58.749      -4.676
  O     -134.045     -59.210      -5.905
  C     -133.810     -57.589      -4.149
  O     -132.835     -58.155      -3.263
  C     -133.121     -57.073      -5.399
  O     -131.940     -56.333      -5.112
  C     -132.890     -58.378      -6.153
  N     -129.702     -58.654     -10.070
  C     -129.470     -58.867      -8.723
  N     -128.226     -59.267      -8.387
  N     -130.375     -58.705      -7.794
  C     -131.577     -58.318      -8.286
  C     -131.919     -58.037      -9.588
  C     -130.920     -58.257     -10.609
  O     -131.106     -58.164     -11.819
  N     -133.208     -57.584      -9.683
  C     -133.669     -57.669      -8.451
  N     -132.732     -58.152      -7.576
  O     -137.547     -56.121      -4.252
  O     -136.933     -54.939      -6.456
  H     -131.537     -56.070      -5.964
  H     -137.881     -55.236      -4.011
  H     -128.970     -58.813     -10.742
  H     -134.666     -57.403      -8.135
  H     -131.999     -58.915      -5.801
  H     -133.803     -56.415      -5.951
  H     -127.488     -59.442      -9.054
  H     -134.388     -56.817      -3.634
  H     -128.037     -59.462      -7.411
  H     -134.648     -59.587      -3.967
  H     -136.633     -59.290      -5.330
  H     -136.627     -58.049      -4.059
  P     -131.976     -57.152      -2.353
  C     -129.734     -57.633      -3.558
  O     -130.716     -56.675      -3.216
  O     -131.325     -58.131      -1.262
  O     -132.768     -56.071      -1.691
  H     -131.220     -57.656      -0.418
  H     -129.189     -57.278      -4.437
  H     -130.182     -58.603      -3.790
  H     -129.031     -57.745      -2.730
  H     -139.790     -57.572      -7.924
  H     -138.067     -57.840      -8.035
  H     -138.720     -56.238      -8.281

 3  4  5  6  7  8  9  10  11  12  23  26  30  31 0
 6-311+G(2d,p)
 ****
 33  35  36  37  38 0
 6-311+G(2d,p)
 ****
 1  2  13  14  15  16  17  18  19  20  21  22  24  25 0
 3-21G
 ****
 27  28  29  32  34  39  40  41  42  43  44  45  46  47  48  49 0
 3-21G
 ****


