%nproc=1
%NoSave
%Mem=1900MB
#P OB98/GEN NMR

erre ene a

0 1
  C       56.972     -31.551     469.073
  O       56.686     -31.237     467.721
  H       57.445     -30.684     469.535
  H       57.658     -32.398     469.128
  H       56.050     -31.779     469.617
  P       55.981     -32.356     466.807
  C       57.835     -32.388     464.988
  O       57.210     -33.080     466.060
  C       58.692     -33.340     464.168
  O       59.863     -33.761     464.895
  C       58.005     -34.639     463.766
  O       57.027     -34.483     462.743
  C       59.201     -35.446     463.305
  O       59.620     -34.994     462.008
  C       60.235     -35.080     464.395
  N       60.281     -36.052     465.492
  C       60.543     -37.382     465.136
  O       60.712     -37.699     463.957
  N       60.568     -38.334     466.133
  C       60.328     -37.995     467.364
  N       60.361     -38.980     468.303
  C       60.033     -36.609     467.770
  C       60.022     -35.700     466.800
  O       54.878     -31.877     465.913
  O       55.521     -33.490     467.848
  H       60.578     -35.154     461.942
  H       55.070     -34.201     467.332
  H       59.811     -36.384     468.809
  H       59.802     -34.656     467.026
  H       61.243     -34.985     463.960
  H       58.994     -36.520     463.225
  H       57.560     -35.137     464.648
  H       59.047     -32.785     463.281
  H       60.568     -39.922     467.994
  H       58.441     -31.579     465.415
  H       60.111     -38.822     469.272
  H       57.076     -31.942     464.334
  P       56.095     -35.760     462.424
  C       56.896     -35.708     459.936
  O       56.722     -36.461     461.126
  O       54.733     -35.086     461.898
  O       55.865     -36.683     463.584
  H       54.074     -35.044     462.614
  H       57.323     -36.331     459.179
  H       57.549     -34.882     460.129
  H       55.947     -35.342     459.603

 6  7  8  9  10  11  12  13  14  15  16  26  30  31  32  33  35 0
 6-311+G(2d,p)
 ****
 37  38 0
 6-311+G(2d,p)
 ****
 1  2  3  4  5  17  18  19  20  21  22  23  24  25 0
 3-21G
 ****
 27  28  29  34  36  39  40  41  42  43  44  45  46 0
 3-21G
 ****


