%nproc=1
%NoSave
%Mem=1900MB
#P OB98/GEN NMR

erre ene a

0 1
  C       40.609     118.742     -17.992
  O       40.323     117.531     -17.292
  P       38.948     117.408     -16.477
  C       39.950     117.679     -14.119
  O       39.088     118.231     -15.104
  C       39.730     118.358     -12.760
  O       40.446     117.647     -11.709
  C       40.227     119.810     -12.739
  O       39.405     120.613     -11.878
  C       41.593     119.690     -12.095
  O       42.031     120.932     -11.550
  C       41.327     118.592     -11.067
  N       45.597     119.077      -8.283
  C       44.544     119.904      -8.463
  N       43.432     119.699      -9.199
  C       43.464     118.486      -9.779
  C       44.464     117.532      -9.678
  C       45.580     117.869      -8.893
  N       46.666     117.038      -8.732
  N       44.150     116.408     -10.418
  C       43.001     116.700     -10.992
  N       42.529     117.929     -10.611
  O       38.404     116.028     -16.332
  O       37.949     118.332     -17.328
  H       42.968     120.829     -11.300
  H       37.082     117.887     -17.393
  H       44.606     120.860      -7.950
  H       42.478     116.070     -11.697
  H       40.807     118.981     -10.184
  H       42.328     119.365     -12.842
  H       40.275     120.288     -13.724
  H       38.665     118.312     -12.508
  H       40.991     117.802     -14.430
  H       47.468     117.411      -8.247
  H       46.729     116.204      -9.299
  H       39.781     116.599     -14.058
  P       38.724     121.906     -12.556
  C       40.862     123.408     -12.493
  O       39.918     122.703     -13.266
  O       37.871     122.692     -11.615
  O       37.908     121.251     -13.767
  H       38.423     120.645     -14.325
  H       41.656     123.770     -13.152
  H       41.308     122.759     -11.735
  H       40.389     124.268     -12.011
  H       41.558     118.657     -18.479
  H       40.635     119.557     -17.299
  H       39.848     118.920     -18.723

 3  4  5  6  7  8  9  10  11  12  22  25  29  30  31  32 0
 6-311+G(2d,p)
 ****
 33  36  37 0
 6-311+G(2d,p)
 ****
 1  2  13  14  15  16  17  18  19  20  21  23  24  26 0
 3-21G
 ****
 27  28  34  35  38  39  40  41  42  43  44  45  46  47  48 0
 3-21G
 ****


