%nproc=1
%NoSave
%Mem=1900MB
#P OB98/GEN NMR

erre ene a

0 1
  C      115.241    -364.175    -202.019
  O      115.010    -363.259    -203.070
  H      115.311    -365.182    -202.440
  H      114.412    -364.147    -201.307
  H      116.178    -363.940    -201.507
  P      114.989    -361.703    -202.686
  C      112.414    -361.347    -202.872
  O      113.550    -361.420    -202.025
  C      111.193    -360.909    -202.064
  O      110.155    -360.480    -202.987
  C      110.601    -362.030    -201.199
  O      110.127    -361.475    -199.972
  C      109.428    -362.529    -202.029
  O      108.422    -363.179    -201.267
  C      108.956    -361.221    -202.676
  N      108.159    -361.446    -203.878
  C      106.850    -361.880    -203.707
  O      106.290    -362.016    -202.620
  N      106.164    -362.167    -204.862
  C      106.657    -362.085    -206.131
  O      106.003    -362.379    -207.126
  C      108.051    -361.632    -206.246
  C      108.727    -361.336    -205.133
  O      114.884    -360.971    -204.108
  O      116.143    -361.217    -201.879
  H      115.776    -360.783    -204.462
  H      108.124    -362.560    -200.568
  H      105.213    -362.484    -204.758
  H      108.477    -361.564    -207.239
  H      109.758    -361.011    -205.184
  H      108.382    -360.625    -201.955
  H      109.779    -363.230    -202.793
  H      111.317    -362.829    -200.994
  H      111.459    -360.037    -201.451
  H      112.228    -362.333    -203.305
  H      112.611    -360.633    -203.679
  P      111.131    -361.487    -198.717
  C      110.120    -363.700    -197.758
  O      111.257    -363.025    -198.270
  O      110.231    -360.814    -197.583
  O      112.424    -360.793    -199.001
  H      109.292    -361.065    -197.633
  H      110.384    -364.708    -197.513
  H      109.345    -363.703    -198.496
  H      109.773    -363.198    -196.879

 6  7  8  9  10  11  12  13  14  15  16  27  31  32  33  34  35 0
 6-311+G(2d,p)
 ****
 36  37 0
 6-311+G(2d,p)
 ****
 1  2  3  4  5  17  18  19  20  21  22  23  24  25 0
 3-21G
 ****
 26  28  29  30  38  39  40  41  42  43  44  45 0
 3-21G
 ****


