%nproc=1
%NoSave
%Mem=1900MB
#P OB98/GEN NMR

erre ene a

0 1
  C      599.326     315.498     494.718
  O      599.492     314.382     495.571
  H      599.198     316.393     495.331
  H      598.436     315.369     494.094
  H      600.207     315.624     494.085
  P      599.593     312.948     494.853
  C      597.361     312.279     496.026
  O      598.736     311.988     495.816
  C      596.697     311.114     496.757
  O      596.946     309.872     496.062
  C      597.211     310.898     498.175
  O      596.654     311.809     499.110
  C      596.733     309.473     498.419
  O      595.319     309.478     498.684
  C      597.047     308.819     497.057
  N      598.368     308.192     497.011
  C      598.604     307.153     497.920
  O      597.735     306.811     498.722
  N      599.841     306.549     497.928
  C      600.753     306.932     497.096
  N      601.961     306.309     497.156
  C      600.542     308.010     496.105
  C      599.341     308.586     496.123
  O      601.097     312.482     495.150
  O      599.207     312.908     493.412
  H      595.180     310.036     499.470
  H      601.221     311.549     494.853
  H      601.338     308.306     495.443
  H      599.118     309.387     495.426
  H      596.292     308.060     496.807
  H      597.218     309.003     499.278
  H      598.302     310.911     498.219
  H      595.613     311.285     496.745
  H      602.097     305.616     497.880
  H      596.887     312.433     495.054
  H      602.780     306.660     496.678
  H      597.255     313.186     496.624
  P      597.669     312.661     500.013
  C      596.684     311.908     502.293
  O      596.916     312.983     501.392
  O      597.703     314.080     499.276
  O      599.041     312.069     500.153
  H      598.601     314.459     499.283
  H      596.177     312.274     503.161
  H      597.620     311.476     502.582
  H      596.081     311.165     501.814

 6  7  8  9  10  11  12  13  14  15  16  26  30  31  32  33  35 0
 6-311+G(2d,p)
 ****
 37  38 0
 6-311+G(2d,p)
 ****
 1  2  3  4  5  17  18  19  20  21  22  23  24  25 0
 3-21G
 ****
 27  28  29  34  36  39  40  41  42  43  44  45  46 0
 3-21G
 ****


