%nproc=1
%NoSave
%Mem=1900MB
#P OB98/GEN NMR

erre ene a

0 1
  C      271.886     -32.955      14.894
  O      271.701     -31.614      15.306
  H      272.917     -33.078      14.551
  H      271.209     -33.193      14.068
  H      271.707     -33.635      15.732
  P      270.222     -31.216      15.789
  C      269.598     -30.319      13.435
  O      269.298     -31.240      14.475
  C      268.316     -29.829      12.768
  O      267.799     -30.823      11.859
  C      267.190     -29.492      13.741
  O      267.339     -28.182      14.259
  C      265.969     -29.634      12.842
  O      265.792     -28.455      12.024
  C      266.347     -30.844      11.973
  N      262.518     -34.131      12.104
  C      262.593     -32.875      11.540
  N      261.473     -32.409      10.940
  N      263.667     -32.129      11.564
  C      264.692     -32.697      12.245
  C      264.739     -33.933      12.851
  C      263.561     -34.767      12.766
  O      263.458     -35.923      13.173
  N      265.968     -34.158      13.423
  C      266.643     -33.050      13.197
  N      265.911     -32.131      12.487
  O      270.346     -29.653      16.123
  O      269.704     -31.979      16.962
  H      266.634     -28.246      11.585
  H      269.801     -29.456      16.908
  H      261.675     -34.671      12.026
  H      267.666     -32.865      13.509
  H      265.945     -30.760      10.959
  H      265.051     -29.749      13.421
  H      260.562     -32.792      11.141
  H      267.131     -30.235      14.549
  H      261.509     -31.458      10.593
  H      268.574     -28.950      12.165
  H      270.228     -30.819      12.691
  H      270.145     -29.471      13.857
  P      267.120     -27.956      15.832
  C      265.023     -26.448      15.536
  O      265.562     -27.650      16.073
  O      267.826     -26.544      16.092
  O      267.707     -29.018      16.703
  H      268.676     -26.677      16.548
  H      263.982     -26.385      15.777
  H      265.144     -26.447      14.473
  H      265.538     -25.608      15.954

 6  7  8  9  10  11  12  13  14  15  26  29  33  34 0
 6-311+G(2d,p)
 ****
 36  38  39  40  41 0
 6-311+G(2d,p)
 ****
 1  2  3  4  5  16  17  18  19  20  21  22  23  24  25 0
 3-21G
 ****
 27  28  30  31  32  35  37  42  43  44  45  46  47 0
 3-21G
 ****
 48  49 0
 3-21G
 ****


