%nproc=1
%NoSave
%Mem=1900MB
#P OB98/GEN NMR

erre ene a

0 1
  C      -92.914     146.188    -432.894
  O      -93.493     147.106    -431.982
  P      -94.329     146.657    -430.699
  C      -93.975     148.823    -429.313
  O      -94.900     147.978    -429.981
  C      -94.660     149.934    -428.487
  O      -95.377     150.817    -429.373
  C      -95.713     149.309    -427.553
  O      -95.325     148.769    -426.305
  C      -96.843     150.340    -427.493
  O      -96.760     151.166    -426.322
  C      -96.616     151.183    -428.752
  N     -101.554     151.859    -429.761
  C     -100.790     152.391    -428.735
  N     -101.481     153.033    -427.757
  N      -99.485     152.288    -428.671
  C      -98.960     151.538    -429.668
  C      -99.604     150.977    -430.744
  C     -101.039     151.135    -430.826
  O     -101.758     150.608    -431.671
  N      -98.752     150.218    -431.524
  C      -97.590     150.298    -430.892
  N      -97.677     151.061    -429.744
  O      -93.730     145.576    -429.848
  O      -95.657     146.040    -431.381
  H      -96.689     150.573    -425.551
  H      -95.960     145.292    -430.825
  H     -102.564     151.905    -429.721
  H      -96.691     149.805    -431.207
  H      -96.543     152.251    -428.498
  H      -97.822     149.842    -427.459
  H     -102.483     153.005    -427.703
  H      -96.144     148.455    -428.091
  H     -100.974     153.285    -426.914
  H      -93.927     150.549    -427.971
  H      -93.326     149.263    -430.071
  H      -93.341     148.228    -428.654
  P      -95.398     147.234    -425.870
  C      -93.275     147.245    -424.446
  O      -94.685     147.076    -424.453
  O      -94.385     146.499    -426.875
  O      -96.756     146.606    -425.966
  H      -94.613     145.540    -426.933
  H      -92.862     146.830    -423.522
  H      -93.045     148.314    -424.480
  H      -92.817     146.740    -425.301
  H      -92.407     146.726    -433.668
  H      -93.683     145.582    -433.326
  H      -92.216     145.564    -432.377

 3  4  5  6  7  8  9  10  11  12  23  26  30  31 0
 6-311+G(2d,p)
 ****
 33  35  36  37  38 0
 6-311+G(2d,p)
 ****
 1  2  13  14  15  16  17  18  19  20  21  22  24  25 0
 3-21G
 ****
 27  28  29  32  34  39  40  41  42  43  44  45  46  47  48  49 0
 3-21G
 ****


