%nproc=1
%NoSave
%Mem=1900MB
#P OB98/GEN NMR

erre ene a

0 1
  C      643.042    -461.475    -127.936
  O      643.369    -462.780    -127.500
  H      643.127    -460.792    -127.082
  H      642.018    -461.441    -128.313
  H      643.739    -461.155    -128.714
  P      643.266    -463.945    -128.599
  C      645.109    -464.667    -130.252
  O      644.791    -464.341    -128.902
  C      646.357    -465.542    -130.311
  O      647.415    -464.907    -129.547
  C      646.143    -466.945    -129.726
  O      646.866    -467.900    -130.501
  C      646.764    -466.852    -128.341
  O      647.190    -468.117    -127.852
  C      647.891    -465.847    -128.575
  N      651.281    -465.746    -124.749
  C      651.232    -466.443    -125.909
  N      650.310    -466.394    -126.884
  C      649.363    -465.485    -126.595
  C      649.266    -464.699    -125.461
  C      650.290    -464.857    -124.500
  N      650.320    -464.169    -123.307
  N      648.131    -463.914    -125.511
  C      647.563    -464.206    -126.659
  N      648.261    -465.161    -127.344
  O      642.432    -463.638    -129.797
  O      642.756    -465.185    -127.713
  H      646.397    -468.693    -127.735
  H      643.238    -465.233    -126.868
  H      652.061    -467.136    -126.069
  H      646.643    -463.778    -127.034
  H      648.802    -466.326    -128.957
  H      646.026    -466.446    -127.636
  H      645.094    -467.224    -129.677
  H      646.708    -465.601    -131.348
  H      645.286    -463.753    -130.828
  H      651.094    -464.327    -122.680
  H      649.599    -463.477    -123.109
  H      644.251    -465.190    -130.686
  P      646.137    -468.567    -131.770
  C      646.070    -468.209    -134.327
  O      646.742    -467.904    -133.103
  O      644.652    -468.628    -131.708
  O      646.774    -470.031    -131.798
  H      646.089    -470.667    -132.065
  H      646.562    -467.713    -135.137
  H      645.055    -467.876    -134.269
  H      646.090    -469.266    -134.491

 6  7  8  9  10  11  12  13  14  15  25  28  32  33  34  35 0
 6-311+G(2d,p)
 ****
 36  39  40 0
 6-311+G(2d,p)
 ****
 1  2  3  4  5  16  17  18  19  20  21  22  23  24 0
 3-21G
 ****
 26  27  29  30  31  37  38  41  42  43  44  45  46  47 0
 3-21G
 ****
 48 0
 3-21G
 ****


