%nproc=1
%NoSave
%Mem=1900MB
#P OB98/GEN NMR

erre ene a

0 1
  C      -13.214     220.680    -149.600
  O      -12.708     219.717    -150.531
  P      -11.249     219.116    -150.234
  C      -12.120     216.723    -149.760
  O      -11.274     217.541    -150.554
  C      -12.826     215.658    -150.608
  O      -13.947     216.234    -151.337
  C      -11.914     214.995    -151.647
  O      -12.336     213.632    -151.792
  C      -12.245     215.746    -152.921
  O      -11.853     215.014    -154.079
  C      -13.749     215.945    -152.737
  N      -17.066     217.102    -156.440
  C      -16.774     215.942    -155.820
  N      -15.858     215.711    -154.854
  C      -15.241     216.853    -154.512
  C      -15.423     218.113    -155.063
  C      -16.389     218.219    -156.077
  N      -16.668     219.398    -156.730
  N      -14.564     219.026    -154.480
  C      -13.876     218.328    -153.599
  N      -14.267     217.020    -153.561
  O      -11.148     219.177    -148.637
  O      -10.140     219.880    -150.880
  H      -12.409     214.206    -154.134
  H      -10.530     219.881    -148.370
  H      -17.351     215.077    -156.146
  H      -13.084     218.716    -152.975
  H      -14.323     215.043    -152.984
  H      -11.723     216.711    -152.934
  H      -10.846     215.031    -151.407
  H      -13.230     214.893    -149.933
  H      -12.874     217.338    -149.255
  H      -17.354     219.383    -157.468
  H      -16.137     220.225    -156.501
  H      -11.525     216.266    -148.960
  P      -11.241     212.507    -151.468
  C      -11.539     212.634    -148.891
  O      -11.669     211.857    -150.068
  O       -9.927     213.349    -151.110
  O      -11.004     211.545    -152.586
  H       -9.129     212.816    -151.289
  H      -12.411     212.453    -148.254
  H      -11.481     213.705    -149.110
  H      -10.639     212.327    -148.358
  H      -14.187     220.999    -149.910
  H      -12.556     221.523    -149.566
  H      -13.277     220.237    -148.628

 3  4  5  6  7  8  9  10  11  12  22  25  29  30  31  32 0
 6-311+G(2d,p)
 ****
 33  36  37 0
 6-311+G(2d,p)
 ****
 1  2  13  14  15  16  17  18  19  20  21  23  24  26 0
 3-21G
 ****
 27  28  34  35  38  39  40  41  42  43  44  45  46  47  48 0
 3-21G
 ****


