%nproc=1
%NoSave
%Mem=1900MB
#P OB98/GEN NMR

erre ene a

0 1
  C     -388.890    -255.932    -167.755
  O     -389.959    -255.145    -167.240
  P     -391.128    -255.880    -166.421
  C     -390.285    -255.346    -163.966
  O     -390.596    -256.288    -164.973
  C     -391.159    -255.618    -162.731
  O     -390.660    -256.766    -162.008
  C     -391.201    -254.445    -161.751
  O     -392.202    -253.508    -162.085
  C     -391.450    -255.156    -160.437
  O     -392.841    -255.520    -160.315
  C     -390.571    -256.423    -160.595
  N     -389.143    -256.329    -160.222
  C     -388.790    -256.013    -158.910
  O     -389.597    -255.792    -158.010
  N     -387.444    -255.966    -158.646
  C     -386.437    -256.361    -159.484
  O     -385.259    -256.352    -159.171
  C     -386.876    -256.825    -160.806
  C     -388.178    -256.781    -161.115
  O     -391.296    -257.278    -167.171
  O     -392.419    -255.115    -166.363
  H     -392.955    -255.920    -159.433
  H     -392.177    -257.340    -167.585
  H     -387.171    -255.668    -157.718
  H     -386.119    -257.189    -161.483
  H     -388.505    -257.125    -162.090
  H     -390.994    -257.260    -160.026
  H     -391.238    -254.503    -159.585
  H     -390.215    -253.972    -161.693
  H     -392.182    -255.849    -163.074
  H     -390.453    -254.324    -164.321
  H     -389.228    -255.419    -163.708
  P     -391.944    -251.945    -161.821
  C     -389.952    -251.844    -163.438
  O     -390.378    -251.714    -162.099
  O     -392.463    -251.402    -160.537
  O     -392.625    -251.236    -163.095
  H     -393.538    -250.935    -162.876
  H     -388.911    -251.506    -163.515
  H     -390.572    -251.225    -164.102
  H     -390.008    -252.889    -163.749
  H     -388.198    -255.300    -168.271
  H     -389.279    -256.663    -168.433
  H     -388.389    -256.425    -166.948

 3  4  5  6  7  8  9  10  11  12  13  23  28  29  30  31  32 0
 6-311+G(2d,p)
 ****
 33  34 0
 6-311+G(2d,p)
 ****
 1  2  14  15  16  17  18  19  20  21  22  24  25  26  27 0
 3-21G
 ****
 35  36  37  38  39  40  41  42  43  44  45 0
 3-21G
 ****


