%nproc=1
%NoSave
%Mem=1900MB
#P OB98/GEN NMR

erre ene a

0 1
  C       68.586    -273.470     -60.188
  O       67.251    -273.048     -59.990
  H       68.709    -273.763     -61.234
  H       68.818    -274.331     -59.555
  H       69.276    -272.651     -59.972
  P       66.757    -272.714     -58.503
  C       65.267    -270.775     -59.305
  O       65.312    -272.031     -58.643
  C       63.841    -270.218     -59.316
  O       63.070    -270.946     -60.311
  C       63.122    -270.347     -57.967
  O       62.313    -269.185     -57.777
  C       62.255    -271.571     -58.168
  O       61.147    -271.575     -57.290
  C       61.907    -271.485     -59.659
  N       61.539    -272.798     -60.190
  C       60.479    -272.826     -61.106
  O       59.914    -271.783     -61.433
  N       60.040    -274.038     -61.571
  C       60.573    -275.133     -61.125
  N       60.067    -276.302     -61.602
  C       61.679    -275.151     -60.142
  C       62.105    -273.963     -59.723
  O       67.720    -271.966     -57.641
  O       66.420    -274.153     -57.885
  H       60.460    -270.961     -57.627
  H       67.207    -274.521     -57.442
  H       62.080    -276.090     -59.796
  H       62.905    -273.878     -58.993
  H       61.071    -270.792     -59.821
  H       62.844    -272.478     -57.970
  H       63.811    -270.464     -57.123
  H       63.879    -269.173     -59.645
  H       59.295    -276.241     -62.256
  H       65.609    -270.925     -60.337
  H       60.367    -277.212     -61.299
  H       65.942    -270.068     -58.808
  P       62.254    -268.451     -56.350
  C       62.410    -266.070     -57.280
  O       61.614    -266.987     -56.538
  O       63.537    -268.471     -55.583
  O       61.110    -269.249     -55.554
  H       61.311    -269.226     -54.597
  H       61.901    -265.131     -57.349
  H       62.578    -266.458     -58.263
  H       63.349    -265.931     -56.786

 6  7  8  9  10  11  12  13  14  15  16  26  30  31  32  33  35 0
 6-311+G(2d,p)
 ****
 37  38 0
 6-311+G(2d,p)
 ****
 1  2  3  4  5  17  18  19  20  21  22  23  24  25 0
 3-21G
 ****
 27  28  29  34  36  39  40  41  42  43  44  45  46 0
 3-21G
 ****


