%nproc=1
%NoSave
%Mem=1900MB
#P OB98/GEN NMR

erre ene a

0 1
  C       11.096    -819.104    -199.273
  O        9.861    -818.515    -199.672
  P        9.765    -817.857    -201.130
  C        8.091    -819.565    -202.277
  O        8.379    -818.262    -201.814
  C        6.716    -819.571    -202.959
  O        5.670    -819.661    -201.968
  C        6.443    -818.313    -203.779
  O        6.952    -818.430    -205.108
  C        4.928    -818.213    -203.726
  O        4.326    -819.161    -204.632
  C        4.665    -818.633    -202.255
  N        4.732    -817.593    -201.209
  C        3.685    -816.687    -201.065
  O        2.669    -816.677    -201.770
  N        3.818    -815.762    -200.054
  C        4.784    -815.760    -199.092
  O        4.825    -814.943    -198.181
  C        5.771    -816.834    -199.196
  C        5.719    -817.674    -200.235
  O       10.850    -818.652    -201.977
  O       10.001    -816.373    -201.151
  H        4.582    -818.892    -205.527
  H       11.568    -818.053    -202.262
  H        3.104    -815.058    -199.988
  H        6.534    -816.897    -198.427
  H        6.454    -818.474    -200.318
  H        3.674    -819.116    -202.166
  H        4.580    -817.234    -204.027
  H        6.859    -817.437    -203.289
  H        6.639    -820.464    -203.599
  H        8.106    -820.284    -201.460
  H        8.866    -819.873    -202.985
  P        7.269    -817.114    -205.962
  C        9.080    -818.528    -207.104
  O        7.998    -817.633    -207.288
  O        7.953    -816.012    -205.226
  O        5.834    -816.663    -206.510
  H        5.429    -815.974    -205.933
  H        9.380    -818.930    -208.070
  H        8.775    -819.364    -206.448
  H        9.922    -818.003    -206.650
  H       11.000    -819.497    -198.282
  H       11.867    -818.362    -199.290
  H       11.348    -819.895    -199.948

 3  4  5  6  7  8  9  10  11  12  13  23  28  29  30  31  32 0
 6-311+G(2d,p)
 ****
 33  34 0
 6-311+G(2d,p)
 ****
 1  2  14  15  16  17  18  19  20  21  22  24  25  26  27 0
 3-21G
 ****
 35  36  37  38  39  40  41  42  43  44  45 0
 3-21G
 ****


