%nproc=1
%NoSave
%Mem=1900MB
#P OB98/GEN NMR

erre ene a

0 1
  C      457.150    -410.025     553.530
  O      456.394    -410.898     554.348
  H      456.488    -409.221     553.177
  H      457.542    -410.553     552.654
  H      457.967    -409.581     554.101
  P      457.093    -412.245     554.866
  C      455.925    -411.781     557.130
  O      456.211    -412.733     556.112
  C      454.833    -412.317     558.054
  O      455.258    -413.555     558.662
  C      454.511    -411.374     559.201
  O      453.722    -410.288     558.764
  C      453.820    -412.324     560.169
  O      452.458    -412.555     559.796
  C      454.665    -413.614     559.982
  N      455.690    -413.771     561.006
  C      455.289    -413.510     562.322
  O      454.134    -413.173     562.566
  N      456.238    -413.616     563.325
  C      457.448    -413.963     563.037
  N      458.323    -414.052     564.073
  C      457.911    -414.261     561.664
  C      456.986    -414.147     560.710
  O      458.564    -412.178     555.140
  O      456.737    -413.313     553.726
  H      452.488    -413.162     559.030
  H      457.422    -413.309     553.035
  H      458.932    -414.554     561.478
  H      457.247    -414.343     559.675
  H      454.018    -414.501     560.002
  H      453.831    -411.942     561.184
  H      455.435    -411.017     559.678
  H      453.934    -412.524     557.454
  H      457.971    -413.823     564.992
  H      455.576    -410.874     556.630
  H      459.275    -414.392     563.986
  H      456.822    -411.547     557.708
  P      453.296    -409.129     559.794
  C      452.726    -407.815     557.636
  O      452.307    -408.175     558.953
  O      454.429    -408.431     560.481
  O      452.297    -409.882     560.801
  H      452.790    -410.464     561.417
  H      451.988    -407.184     557.187
  H      452.847    -408.699     557.046
  H      453.658    -407.292     557.689

 6  7  8  9  10  11  12  13  14  15  16  26  30  31  32  33  35 0
 6-311+G(2d,p)
 ****
 37  38 0
 6-311+G(2d,p)
 ****
 1  2  3  4  5  17  18  19  20  21  22  23  24  25 0
 3-21G
 ****
 27  28  29  34  36  39  40  41  42  43  44  45  46 0
 3-21G
 ****


