%nproc=1
%NoSave
%Mem=1900MB
#P OB98/GEN NMR

erre ene a

0 1
  C      860.791    -893.990    -683.538
  O      861.056    -895.350    -683.806
  H      859.728    -893.790    -683.751
  H      861.401    -893.360    -684.189
  H      860.990    -893.750    -682.489
  P      862.414    -895.960    -683.201
  C      861.456    -897.030    -681.039
  O      862.235    -895.990    -681.605
  C      860.292    -896.450    -680.233
  O      859.443    -895.680    -681.132
  C      859.404    -897.500    -679.549
  O      858.978    -896.990    -678.271
  C      858.194    -897.570    -680.463
  O      857.042    -898.070    -679.797
  C      858.082    -896.110    -680.912
  N      854.159    -893.630    -682.797
  C      854.886    -893.420    -681.635
  N      854.448    -892.430    -680.811
  N      855.930    -894.110    -681.299
  C      856.248    -895.060    -682.215
  C      855.624    -895.380    -683.399
  C      854.447    -894.590    -683.740
  O      853.754    -894.750    -684.753
  N      856.230    -896.440    -684.024
  C      857.213    -896.800    -683.201
  N      857.269    -895.990    -682.088
  O      863.477    -894.780    -683.445
  O      862.869    -897.240    -683.808
  H      856.298    -898.080    -680.438
  H      863.954    -894.930    -684.284
  H      853.344    -893.060    -682.989
  H      857.901    -897.610    -683.348
  H      857.644    -895.490    -680.137
  H      858.412    -898.230    -681.311
  H      853.676    -891.820    -681.004
  H      859.895    -898.470    -679.405
  H      854.993    -892.250    -679.974
  H      860.696    -895.740    -679.489
  H      862.080    -897.620    -680.366
  H      861.085    -897.680    -681.841
  P      859.304    -897.860    -676.966
  C      860.698    -896.310    -675.401
  O      860.701    -897.360    -676.364
  O      859.655    -899.300    -677.571
  O      858.172    -897.930    -675.991
  H      859.357    -900.000    -676.962
  H      861.703    -896.097    -675.102
  H      860.128    -896.611    -674.547
  H      860.260    -895.433    -675.831

 6  7  8  9  10  11  12  13  14  15  26  29  33  34 0
 6-311+G(2d,p)
 ****
 36  38  39  40  41 0
 6-311+G(2d,p)
 ****
 1  2  3  4  5  16  17  18  19  20  21  22  23  24  25 0
 3-21G
 ****
 27  28  30  31  32  35  37  42  43  44  45  46  47 0
 3-21G
 ****
 48  49 0
 3-21G
 ****


