%nproc=1
%NoSave
%Mem=1900MB
#P OB98/GEN NMR

erre ene a

0 1
  C      122.326      47.037      49.401
  O      123.368      47.979      49.270
  P      124.898      47.501      49.232
  C      126.585      46.609      50.961
  O      125.331      47.255      50.759
  C      127.178      47.024      52.304
  O      127.555      48.427      52.296
  C      126.213      46.904      53.476
  O      125.797      45.605      53.842
  C      126.927      47.728      54.535
  O      127.958      46.976      55.174
  C      127.540      48.867      53.678
  N      126.809      50.123      53.838
  C      126.912      50.732      55.084
  O      127.568      50.270      56.017
  N      126.202      51.893      55.242
  C      125.381      52.464      54.314
  O      124.738      53.482      54.538
  C      125.300      51.766      53.022
  C      126.006      50.644      52.844
  O      125.820      48.386      48.461
  O      124.803      46.007      48.662
  H      127.525      46.288      55.718
  H      124.271      45.397      49.204
  H      126.253      52.345      56.142
  H      124.666      52.200      52.258
  H      125.959      50.111      51.899
  H      128.585      49.041      53.965
  H      126.241      48.066      55.318
  H      125.294      47.443      53.216
  H      128.091      46.447      52.470
  H      127.270      46.906      50.161
  H      126.450      45.524      50.902
  P      124.322      45.270      54.367
  C      123.036      45.606      56.592
  O      124.103      46.020      55.768
  O      123.887      43.844      54.275
  O      123.419      46.155      53.376
  H      122.563      45.707      53.238
  H      123.007      46.249      57.476
  H      123.183      44.571      56.920
  H      122.082      45.698      56.064
  H      121.384      47.545      49.407
  H      122.446      46.498      50.317
  H      122.358      46.354      48.578

 3  4  5  6  7  8  9  10  11  12  13  23  28  29  30  31  32 0
 6-311+G(2d,p)
 ****
 33  34 0
 6-311+G(2d,p)
 ****
 1  2  14  15  16  17  18  19  20  21  22  24  25  26  27 0
 3-21G
 ****
 35  36  37  38  39  40  41  42  43  44  45 0
 3-21G
 ****


