%nproc=1
%NoSave
%Mem=1900MB
#P OB98/GEN NMR

erre ene a

0 1
  C       88.926     237.733    -282.556
  O       89.446     238.378    -283.702
  H       89.038     238.403    -281.699
  H       89.473     236.810    -282.354
  H       87.862     237.516    -282.691
  P       89.465     237.580    -285.091
  C       90.899     235.633    -284.187
  O       90.817     236.715    -285.111
  C       91.767     234.509    -284.766
  O       91.088     233.983    -285.932
  C       93.156     235.004    -285.199
  O       94.223     234.244    -284.635
  C       93.051     235.055    -286.718
  O       94.281     234.914    -287.401
  C       92.018     233.965    -287.031
  N       91.322     234.156    -288.299
  C       91.721     233.367    -289.374
  O       92.596     232.502    -289.331
  N       91.055     233.589    -290.552
  C       90.064     234.502    -290.756
  O       89.501     234.651    -291.837
  C       89.701     235.323    -289.592
  C       90.336     235.117    -288.436
  O       89.234     238.406    -286.313
  O       88.327     236.465    -284.913
  H       94.648     234.035    -287.177
  H       87.524     236.738    -285.394
  H       91.329     233.015    -291.335
  H       88.925     236.065    -289.720
  H       90.093     235.703    -287.555
  H       92.493     232.984    -287.058
  H       92.638     236.032    -287.003
  H       93.343     236.019    -284.824
  H       91.838     233.701    -284.029
  H       89.883     235.271    -284.001
  H       91.329     235.986    -283.242
  P       94.966     234.597    -283.268
  C       97.116     235.575    -284.407
  O       96.541     234.605    -283.542
  O       94.492     233.853    -282.065
  O       94.612     236.157    -283.046
  H       94.557     236.296    -282.077
  H       98.173     235.420    -284.464
  H       96.919     236.555    -284.025
  H       96.688     235.480    -285.383

 6  7  8  9  10  11  12  13  14  15  16  26  31  32  33  34  35 0
 6-311+G(2d,p)
 ****
 36  37 0
 6-311+G(2d,p)
 ****
 1  2  3  4  5  17  18  19  20  21  22  23  24  25 0
 3-21G
 ****
 27  28  29  30  38  39  40  41  42  43  44  45 0
 3-21G
 ****


