%nproc=1
%NoSave
%Mem=1900MB
#P OB98/GEN NMR

erre ene a

0 1
  C      918.551     650.661    -990.713
  O      918.754     649.620    -989.750
  P      920.236     649.048    -989.525
  C      920.271     649.878    -987.070
  O      920.940     649.839    -988.323
  C      920.945     650.904    -986.134
  O      921.215     652.138    -986.859
  C      920.044     651.326    -984.970
  O      919.818     650.354    -983.984
  C      920.687     652.637    -984.542
  O      921.820     652.410    -983.681
  C      921.152     653.222    -985.894
  N      920.293     654.305    -986.372
  C      920.307     655.488    -985.660
  O      920.976     655.643    -984.627
  N      919.501     656.497    -986.114
  C      918.662     656.424    -987.165
  O      917.939     657.336    -987.533
  C      918.679     655.131    -987.896
  C      919.465     654.142    -987.481
  O      921.062     648.859    -990.758
  O      919.942     647.602    -988.835
  H      922.222     653.253    -983.487
  H      920.561     646.968    -989.232
  H      919.516     657.357    -985.577
  H      918.004     655.033    -988.761
  H      919.489     653.185    -987.987
  H      922.175     653.631    -985.817
  H      919.975     653.261    -983.998
  H      919.054     651.572    -985.386
  H      921.894     650.497    -985.808
  H      920.295     648.885    -986.618
  H      919.209     650.106    -987.229
  P      918.374     649.614    -983.768
  C      919.312     647.424    -984.787
  O      918.291     648.390    -984.804
  O      917.180     650.496    -983.622
  O      918.630     648.853    -982.370
  H      917.793     648.820    -981.897
  H      919.075     646.676    -985.562
  H      919.346     646.911    -983.821
  H      920.291     647.871    -985.001
  H      917.515     650.926    -990.739
  H      918.856     650.317    -991.679
  H      919.131     651.518    -990.440

 3  4  5  6  7  8  9  10  11  12  13  23  28  29  30  31  32 0
 6-311+G(2d,p)
 ****
 33  34 0
 6-311+G(2d,p)
 ****
 1  2  14  15  16  17  18  19  20  21  22  24  25  26  27 0
 3-21G
 ****
 35  36  37  38  39  40  41  42  43  44  45 0
 3-21G
 ****


