%nproc=1
%NoSave
%Mem=1900MB
#P OB98/GEN NMR

erre ene a

0 1
  C     -187.447     -68.449     485.430
  O     -186.243     -69.147     485.705
  P     -186.100     -70.075     487.007
  C     -184.110     -68.646     487.820
  O     -185.406     -69.141     488.112
  C     -184.028     -67.158     488.170
  O     -185.144     -66.463     487.574
  C     -184.104     -66.859     489.664
  O     -182.870     -67.148     490.304
  C     -184.511     -65.388     489.642
  O     -183.367     -64.557     489.385
  C     -185.474     -65.341     488.434
  N     -186.881     -65.374     488.829
  C     -187.505     -64.134     488.993
  O     -186.896     -63.084     488.807
  N     -188.835     -64.112     489.336
  C     -189.480     -65.227     489.521
  N     -190.811     -65.146     489.795
  C     -188.843     -66.549     489.411
  C     -187.556     -66.551     489.061
  O     -185.416     -71.381     486.777
  O     -187.594     -70.221     487.560
  H     -183.711     -63.667     489.172
  H     -188.092     -70.980     487.170
  H     -189.415     -67.449     489.590
  H     -187.021     -67.483     488.936
  H     -185.290     -64.437     487.839
  H     -184.970     -65.048     490.578
  H     -184.897     -67.454     490.132
  H     -183.100     -66.749     487.745
  H     -191.238     -64.232     489.688
  H     -183.918     -68.768     486.746
  H     -191.427     -65.934     489.666
  H     -183.365     -69.222     488.380
  P     -182.843     -68.348     491.364
  C     -182.931     -66.393     493.070
  O     -183.332     -67.719     492.754
  O     -181.282     -68.618     491.573
  O     -183.574     -69.574     490.924
  H     -180.999     -69.399     491.059
  H     -183.529     -66.038     493.910
  H     -183.093     -65.727     492.213
  H     -181.878     -66.381     493.356
  H     -187.337     -67.892     484.523
  H     -187.663     -67.779     486.236
  H     -188.249     -69.149     485.324

 3  4  5  6  7  8  9  10  11  12  13  23  27  28  29  30  32 0
 6-311+G(2d,p)
 ****
 34  35 0
 6-311+G(2d,p)
 ****
 1  2  14  15  16  17  18  19  20  21  22  24  25  26 0
 3-21G
 ****
 31  33  36  37  38  39  40  41  42  43  44  45  46 0
 3-21G
 ****


