%nproc=1
%NoSave
%Mem=1900MB
#P OB98/GEN NMR

erre ene a

0 1
  C      -98.271      -6.747     -24.216
  O      -98.532      -7.773     -25.151
  H      -97.709      -7.169     -23.380
  H      -99.210      -6.339     -23.834
  H      -97.676      -5.949     -24.669
  P      -99.168      -7.384     -26.569
  C      -98.119      -9.256     -27.998
  O      -99.305      -8.744     -27.405
  C      -98.282     -10.745     -28.286
  O      -98.333     -11.489     -27.051
  C      -99.564     -11.096     -29.033
  O      -99.460     -10.758     -30.403
  C      -99.660     -12.587     -28.745
  O      -98.793     -13.332     -29.614
  C      -99.162     -12.650     -27.281
  N     -100.250     -12.718     -26.307
  C     -100.964     -13.910     -26.259
  O     -100.742     -14.857     -27.011
  N     -101.963     -13.971     -25.323
  C     -102.360     -12.950     -24.510
  O     -103.299     -13.039     -23.724
  C     -101.592     -11.703     -24.628
  C     -100.588     -11.645     -25.506
  O      -98.498      -6.266     -27.296
  O     -100.688      -7.027     -26.214
  H      -99.262     -13.420     -30.466
  H     -100.797      -6.059     -26.170
  H     -102.500     -14.823     -25.283
  H     -101.882     -10.870     -24.003
  H     -100.014     -10.732     -25.611
  H      -98.520     -13.527     -27.137
  H     -100.666     -12.979     -28.892
  H     -100.422     -10.594     -28.571
  H      -97.401     -11.083     -28.847
  H      -97.285      -9.107     -27.302
  H      -97.916      -8.702     -28.919
  P     -100.415      -9.649     -31.047
  C      -99.147      -9.988     -33.246
  O     -100.427      -9.885     -32.636
  O     -100.133      -8.245     -30.630
  O     -101.885     -10.100     -30.603
  H     -102.216      -9.505     -29.902
  H      -99.265     -10.143     -34.298
  H      -98.615     -10.813     -32.821
  H      -98.598      -9.085     -33.078

 6  7  8  9  10  11  12  13  14  15  16  26  31  32  33  34  35 0
 6-311+G(2d,p)
 ****
 36  37 0
 6-311+G(2d,p)
 ****
 1  2  3  4  5  17  18  19  20  21  22  23  24  25 0
 3-21G
 ****
 27  28  29  30  38  39  40  41  42  43  44  45 0
 3-21G
 ****


