%nproc=1
%NoSave
%Mem=1900MB
#P OB98/GEN NMR

erre ene a

0 1
  C     -115.501      57.592     174.474
  O     -116.267      56.449     174.155
  H     -115.196      57.531     175.523
  H     -116.109      58.491     174.339
  H     -114.604      57.649     173.850
  P     -116.558      56.175     172.602
  C     -118.860      55.112     173.140
  O     -118.157      56.116     172.425
  C     -120.055      54.616     172.325
  O     -120.994      55.711     172.161
  C     -119.681      54.108     170.926
  O     -120.489      52.968     170.617
  C     -120.062      55.265     170.016
  O     -120.344      54.844     168.682
  C     -121.267      55.845     170.753
  N     -124.209      58.948     168.084
  C     -124.316      57.589     168.307
  N     -125.360      56.960     167.725
  N     -123.471      56.906     169.037
  C     -122.497      57.674     169.586
  C     -122.282      59.024     169.437
  C     -123.207      59.764     168.604
  O     -123.152      60.964     168.349
  N     -121.165      59.428     170.127
  C     -120.709      58.323     170.691
  N     -121.487      57.235     170.396
  O     -116.101      54.652     172.410
  O     -115.852      57.081     171.647
  H     -120.428      55.653     168.130
  H     -115.340      54.610     171.799
  H     -124.881      59.421     167.501
  H     -119.822      58.253     171.309
  H     -122.195      55.300     170.529
  H     -119.242      55.992     169.980
  H     -126.074      57.431     167.190
  H     -118.625      53.843     170.834
  H     -125.480      55.968     167.905
  H     -120.572      53.838     172.900
  H     -119.215      55.534     174.088
  H     -118.184      54.277     173.355
  P     -119.783      51.528     170.718
  C     -118.557      51.126     168.470
  O     -118.451      51.556     169.820
  O     -120.772      50.578     169.891
  O     -119.602      51.042     172.119
  H     -121.259      49.992     170.504
  H     -117.600      51.198     167.997
  H     -119.259      51.746     167.952
  H     -118.892      50.110     168.445

 6  7  8  9  10  11  12  13  14  15  26  29  33  34 0
 6-311+G(2d,p)
 ****
 36  38  39  40  41 0
 6-311+G(2d,p)
 ****
 1  2  3  4  5  16  17  18  19  20  21  22  23  24  25 0
 3-21G
 ****
 27  28  30  31  32  35  37  42  43  44  45  46  47 0
 3-21G
 ****
 48  49 0
 3-21G
 ****


