%nproc=1
%NoSave
%Mem=1900MB
#P OB98/GEN NMR

erre ene a

0 1
  C      142.043      93.325    -179.782
  O      140.885      93.929    -180.324
  H      141.782      92.378    -179.301
  H      142.747      93.126    -180.592
  H      142.516      93.995    -179.057
  P      139.731      94.330    -179.284
  C      140.546      96.614    -178.362
  O      140.440      95.215    -178.149
  C      140.594      97.348    -177.026
  O      139.477      96.955    -176.204
  C      141.838      97.066    -176.188
  O      142.953      97.825    -176.630
  C      141.364      97.518    -174.817
  O      141.433      98.955    -174.727
  C      139.897      97.060    -174.818
  N      138.155      94.725    -170.612
  C      138.151      96.020    -170.992
  N      138.615      96.565    -172.137
  C      139.109      95.613    -172.944
  C      139.166      94.250    -172.706
  C      138.663      93.806    -171.471
  N      138.737      92.483    -171.065
  N      139.759      93.592    -173.765
  C      140.074      94.545    -174.616
  N      139.696      95.781    -174.169
  O      139.419      92.940    -178.547
  O      138.504      94.921    -179.893
  H      140.626      99.300    -175.154
  H      138.642      92.525    -178.963
  H      137.721      96.717    -170.278
  H      140.577      94.388    -175.561
  H      139.237      97.787    -174.334
  H      141.967      97.115    -173.998
  H      142.065      95.995    -176.154
  H      140.499      98.422    -177.227
  H      139.680      96.964    -178.934
  H      138.794      92.371    -170.057
  H      139.354      91.908    -171.624
  H      141.456      96.813    -178.937
  P      144.416      97.320    -176.203
  C      145.455      95.619    -177.850
  O      144.562      95.822    -176.763
  O      144.274      97.122    -174.621
  O      145.531      98.248    -176.534
  H      144.953      97.653    -174.161
  H      145.457      94.584    -178.122
  H      146.442      95.913    -177.560
  H      145.139      96.207    -178.686

 6  7  8  9  10  11  12  13  14  15  25  28  32  33  34  35 0
 6-311+G(2d,p)
 ****
 36  39  40 0
 6-311+G(2d,p)
 ****
 1  2  3  4  5  16  17  18  19  20  21  22  23  24 0
 3-21G
 ****
 26  27  29  30  31  37  38  41  42  43  44  45  46  47  48 0
 3-21G
 ****


