%nproc=1
%NoSave
%Mem=1900MB
#P OB98/GEN NMR

erre ene a

0 1
  C      385.228    -616.129     943.704
  O      385.209    -615.609     945.032
  P      386.609    -615.153     945.692
  C      386.044    -612.739     944.992
  O      387.036    -613.756     945.023
  C      386.699    -611.352     944.782
  O      387.406    -610.928     945.957
  C      387.714    -611.330     943.671
  O      387.083    -611.353     942.396
  C      388.492    -610.060     943.996
  O      387.790    -608.898     943.499
  C      388.470    -610.056     945.539
  N      389.752    -610.456     946.124
  C      390.769    -609.495     946.049
  O      390.579    -608.419     945.499
  N      391.992    -609.801     946.621
  C      392.175    -610.948     947.187
  N      393.398    -611.195     947.716
  C      391.130    -611.992     947.257
  C      389.951    -611.667     946.710
  O      387.672    -616.197     945.747
  O      386.160    -614.693     947.169
  H      387.794    -608.974     942.524
  H      386.912    -614.853     947.777
  H      391.314    -612.932     947.753
  H      389.129    -612.379     946.723
  H      388.226    -609.052     945.917
  H      389.480    -610.055     943.539
  H      388.393    -612.196     943.755
  H      385.899    -610.638     944.580
  H      394.092    -610.468     947.642
  H      385.477    -612.750     945.912
  H      393.626    -612.044     948.235
  H      385.347    -612.959     944.182
  P      387.879    -612.047     941.176
  C      388.160    -614.478     942.035
  O      388.771    -613.216     941.783
  O      388.955    -610.913     940.768
  O      387.021    -612.424     940.016
  H      389.107    -610.959     939.810
  H      388.963    -615.233     942.136
  H      387.504    -614.771     941.214
  H      387.586    -614.435     942.962
  H      384.233    -616.385     943.407
  H      385.846    -617.002     943.672
  H      385.620    -615.390     943.037

 3  4  5  6  7  8  9  10  11  12  13  23  27  28  29  30  32 0
 6-311+G(2d,p)
 ****
 34  35 0
 6-311+G(2d,p)
 ****
 1  2  14  15  16  17  18  19  20  21  22  24  25  26 0
 3-21G
 ****
 31  33  36  37  38  39  40  41  42  43  44  45  46 0
 3-21G
 ****


