%nproc=1
%NoSave
%Mem=1900MB
#P OB98/GEN NMR

erre ene a

0 1
  C      263.378      44.720       5.778
  O      264.051      43.872       6.689
  P      264.513      44.414       8.121
  C      266.901      44.516       7.199
  O      265.892      45.214       7.915
  C      268.240      45.248       7.267
  O      268.065      46.602       6.768
  C      268.840      45.354       8.675
  O      270.263      45.293       8.525
  C      268.434      46.755       9.109
  O      269.245      47.265      10.158
  C      268.567      47.496       7.784
  N      268.567      52.422       9.157
  C      269.454      51.428       9.376
  N      269.371      50.135       9.001
  C      268.229      49.909       8.328
  C      267.218      50.815       8.054
  C      267.426      52.138       8.483
  N      266.550      53.170       8.238
  N      266.176      50.188       7.392
  C      266.558      48.932       7.271
  N      267.817      48.732       7.765
  O      264.545      43.393       9.211
  O      263.465      45.579       8.452
  H      268.957      48.175      10.356
  H      262.836      45.274       9.136
  H      270.351      51.708       9.919
  H      265.967      48.135       6.841
  H      269.611      47.730       7.544
  H      267.396      46.743       9.460
  H      268.491      44.581       9.368
  H      268.940      44.742       6.590
  H      266.583      44.440       6.155
  H      266.859      54.101       8.475
  H      265.835      53.047       7.524
  H      267.005      43.500       7.601
  P      271.145      44.467       9.577
  C      271.428      46.658      10.872
  O      271.096      45.283      10.954
  O      272.509      44.085       9.105
  O      270.243      43.177       9.886
  H      270.800      42.484      10.294
  H      272.515      46.765      10.857
  H      271.030      47.173      11.752
  H      271.005      47.113       9.974
  H      263.154      44.177       4.884
  H      264.002      45.556       5.541
  H      262.468      45.068       6.220

 3  4  5  6  7  8  9  10  11  12  22  25  29  30  31  32 0
 6-311+G(2d,p)
 ****
 33  36  37 0
 6-311+G(2d,p)
 ****
 1  2  13  14  15  16  17  18  19  20  21  23  24  26 0
 3-21G
 ****
 27  28  34  35  38  39  40  41  42  43  44  45  46  47  48 0
 3-21G
 ****


