%nproc=1
%NoSave
%Mem=1900MB
#P OB98/GEN NMR

erre ene a

0 1
  C      546.564    -331.972    -725.300
  O      547.135    -333.262    -725.360
  H      545.762    -331.978    -724.558
  H      546.146    -331.705    -726.274
  H      547.316    -331.235    -725.004
  P      548.403    -333.453    -726.323
  C      549.572    -334.817    -724.453
  O      549.170    -334.768    -725.821
  C      549.920    -336.243    -724.044
  O      548.684    -336.996    -723.846
  C      550.767    -337.007    -725.073
  O      551.662    -337.874    -724.358
  C      549.736    -337.878    -725.784
  O      550.323    -339.011    -726.425
  C      548.817    -338.216    -724.610
  N      546.127    -342.408    -725.312
  C      547.395    -342.237    -724.794
  N      548.052    -343.345    -724.398
  N      547.970    -341.066    -724.671
  C      547.186    -340.032    -725.073
  C      545.923    -340.078    -725.606
  C      545.307    -341.380    -725.765
  O      544.196    -341.603    -726.238
  N      545.480    -338.816    -725.918
  C      546.471    -338.019    -725.571
  N      547.534    -338.711    -725.054
  O      549.367    -332.260    -725.879
  O      548.104    -333.416    -727.789
  H      550.748    -338.696    -727.253
  H      549.223    -331.476    -726.445
  H      545.736    -343.336    -725.396
  H      546.473    -336.939    -725.673
  H      549.243    -338.983    -723.949
  H      549.208    -337.288    -726.539
  H      547.654    -344.275    -724.422
  H      551.335    -336.371    -725.757
  H      548.966    -343.232    -723.974
  H      550.423    -336.213    -723.069
  H      548.744    -334.450    -723.827
  H      550.437    -334.162    -724.313
  P      553.224    -337.523    -724.380
  C      553.330    -339.633    -722.867
  O      554.021    -338.754    -723.738
  O      553.354    -336.389    -723.255
  O      553.733    -337.047    -725.704
  H      554.108    -335.804    -723.460
  H      553.998    -340.396    -722.526
  H      552.512    -340.083    -723.390
  H      552.958    -339.084    -722.027

 6  7  8  9  10  11  12  13  14  15  26  29  33  34 0
 6-311+G(2d,p)
 ****
 36  38  39  40  41 0
 6-311+G(2d,p)
 ****
 1  2  3  4  5  16  17  18  19  20  21  22  23  24  25 0
 3-21G
 ****
 27  28  30  31  32  35  37  42  43  44  45  46  47 0
 3-21G
 ****
 48  49 0
 3-21G
 ****


