%nproc=1
%NoSave
%Mem=1900MB
#P OB98/GEN NMR

erre ene a

0 1
  C      298.438     165.019     526.997
  O      298.010     164.182     528.074
  P      296.859     164.784     529.024
  C      295.037     163.282     527.944
  O      295.450     164.596     528.276
  C      293.572     163.058     528.312
  O      292.697     163.995     527.652
  C      293.058     161.674     527.942
  O      293.469     160.727     528.911
  C      291.553     161.900     527.928
  O      290.991     161.792     529.251
  C      291.425     163.337     527.405
  N      288.132     162.002     523.783
  C      288.238     161.568     525.097
  N      287.320     160.671     525.501
  N      289.154     161.981     525.927
  C      290.006     162.882     525.380
  C      289.994     163.406     524.104
  C      288.971     162.940     523.200
  O      288.826     163.307     522.038
  N      290.983     164.343     523.936
  C      291.669     164.282     525.064
  N      291.086     163.463     525.998
  O      297.122     166.368     528.965
  O      296.916     164.271     530.423
  H      291.353     162.508     529.809
  H      297.463     166.675     529.824
  H      287.407     161.646     523.189
  H      292.579     164.835     525.265
  H      290.659     163.902     527.954
  H      291.035     161.150     527.320
  H      286.574     160.311     524.919
  H      293.408     161.397     526.943
  H      287.365     160.350     526.465
  H      293.481     163.218     529.393
  H      295.665     162.551     528.470
  H      295.207     163.120     526.868
  P      294.034     159.322     528.394
  C      296.584     159.638     528.790
  O      295.517     159.564     527.858
  O      293.176     159.051     527.063
  O      293.881     158.196     529.365
  H      292.881     158.124     527.044
  H      297.501     159.283     528.313
  H      296.384     159.025     529.675
  H      296.717     160.677     529.094
  H      299.200     164.518     526.437
  H      298.827     165.935     527.390
  H      297.607     165.230     526.357

 3  4  5  6  7  8  9  10  11  12  23  26  30  31 0
 6-311+G(2d,p)
 ****
 33  35  36  37  38 0
 6-311+G(2d,p)
 ****
 1  2  13  14  15  16  17  18  19  20  21  22  24  25 0
 3-21G
 ****
 27  28  29  32  34  39  40  41  42  43  44  45  46  47  48  49 0
 3-21G
 ****


