%nproc=1
%NoSave
%Mem=1900MB
#P OB98/GEN NMR

erre ene a

0 1
  C      479.358     242.439      43.327
  O      479.722     243.216      42.200
  P      478.663     243.311      40.996
  C      478.994     245.863      40.629
  O      479.132     244.548      40.097
  C      479.362     246.904      39.576
  O      478.606     246.676      38.372
  C      479.054     248.335      39.988
  O      480.033     248.818      40.884
  C      479.049     249.040      38.637
  O      480.377     249.448      38.263
  C      478.521     247.942      37.683
  N      477.167     248.207      37.223
  C      477.060     248.866      35.992
  O      478.076     249.201      35.381
  N      475.812     249.161      35.511
  C      474.761     248.832      36.200
  N      473.547     249.144      35.670
  C      474.830     248.155      37.509
  C      476.053     247.881      37.959
  O      477.339     243.846      41.715
  O      478.434     242.026      40.266
  H      480.274     249.959      37.433
  H      476.543     243.567      41.228
  H      473.927     247.902      38.043
  H      476.198     247.384      38.915
  H      479.169     247.860      36.802
  H      478.431     249.944      38.650
  H      478.058     248.399      40.438
  H      480.428     246.793      39.338
  H      473.531     249.615      34.776
  H      479.667     245.977      41.485
  H      472.672     248.910      36.116
  H      477.965     246.001      40.973
  P      479.573     249.881      41.989
  C      481.760     249.241      43.164
  O      480.921     250.300      42.744
  O      478.854     248.947      43.077
  O      478.692     250.997      41.537
  H      478.435     249.500      43.764
  H      482.705     249.660      43.518
  H      481.965     248.561      42.331
  H      481.288     248.693      43.985
  H      480.149     242.462      44.047
  H      479.183     241.428      43.022
  H      478.467     242.839      43.763

 3  4  5  6  7  8  9  10  11  12  13  21  23  27  28  29  30  32 0
 6-311+G(2d,p)
 ****
 34  35 0
 6-311+G(2d,p)
 ****
 1  2  14  15  16  17  18  19  20  22  24  25  26 0
 3-21G
 ****
 31  33  36  37  38  39  40  41  42  43  44  45  46 0
 3-21G
 ****


