%nproc=1
%NoSave
%Mem=1900MB
#P OB98/GEN NMR

erre ene a

0 1
  C      -78.407    -251.028     138.524
  O      -78.567    -249.857     137.755
  P      -77.654    -249.598     136.463
  C      -76.840    -247.375     137.474
  O      -76.457    -248.638     136.944
  C      -75.611    -246.491     137.667
  O      -74.647    -247.124     138.551
  C      -74.830    -246.227     136.388
  O      -75.461    -245.462     135.387
  C      -73.518    -245.694     136.946
  O      -73.624    -244.313     137.288
  C      -73.353    -246.559     138.222
  N      -72.335    -247.594     138.053
  C      -71.228    -247.498     138.888
  O      -71.080    -246.611     139.726
  N      -70.260    -248.448     138.704
  C      -70.271    -249.436     137.759
  O      -69.350    -250.229     137.621
  C      -71.464    -249.477     136.897
  C      -72.425    -248.568     137.078
  O      -78.385    -249.120     135.254
  O      -76.902    -250.999     136.256
  H      -74.465    -244.195     137.773
  H      -76.352    -251.281     137.010
  H      -69.442    -248.393     139.289
  H      -71.510    -250.254     136.146
  H      -73.311    -248.576     136.451
  H      -73.061    -245.927     139.074
  H      -72.700    -245.787     136.222
  H      -74.605    -247.197     135.920
  H      -75.926    -245.563     138.147
  H      -77.325    -247.529     138.444
  H      -77.570    -246.903     136.806
  P      -74.925    -245.365     133.881
  C      -74.567    -242.801     134.039
  O      -73.997    -244.063     133.758
  O      -75.922    -245.605     132.797
  O      -73.833    -246.547     133.854
  H      -73.794    -246.920     132.952
  H      -73.813    -242.030     133.864
  H      -74.882    -242.749     135.087
  H      -75.420    -242.608     133.385
  H      -79.102    -251.018     139.338
  H      -77.409    -251.069     138.908
  H      -78.589    -251.885     137.910

 3  4  5  6  7  8  9  10  11  12  13  23  28  29  30  31  32 0
 6-311+G(2d,p)
 ****
 33  34 0
 6-311+G(2d,p)
 ****
 1  2  14  15  16  17  18  19  20  21  22  24  25  26  27 0
 3-21G
 ****
 35  36  37  38  39  40  41  42  43  44  45 0
 3-21G
 ****


