%nproc=1
%NoSave
%Mem=1900MB
#P OB98/GEN NMR

erre ene a

0 1
  C     -167.206    -304.868    -384.345
  O     -166.070    -305.631    -383.938
  P     -165.399    -306.657    -384.969
  C     -163.002    -305.687    -384.860
  O     -164.141    -305.955    -385.672
  C     -161.729    -306.131    -385.588
  O     -161.603    -307.572    -385.606
  C     -161.705    -305.721    -387.054
  O     -161.569    -304.339    -387.324
  C     -160.651    -306.649    -387.632
  O     -159.333    -306.149    -387.422
  C     -160.883    -307.938    -386.804
  N     -161.600    -308.973    -387.555
  C     -160.807    -309.943    -388.165
  O     -159.579    -309.933    -388.127
  N     -161.486    -310.913    -388.855
  C     -162.838    -310.984    -389.023
  O     -163.388    -311.867    -389.674
  C     -163.619    -309.917    -388.383
  C     -162.975    -308.971    -387.690
  O     -166.338    -307.354    -385.893
  O     -164.692    -307.721    -383.992
  H     -158.708    -306.856    -387.660
  H     -164.832    -308.609    -384.374
  H     -160.928    -311.629    -389.294
  H     -164.691    -309.942    -388.495
  H     -163.535    -308.182    -387.202
  H     -159.927    -308.362    -386.484
  H     -160.773    -306.775    -388.716
  H     -162.666    -306.018    -387.496
  H     -160.864    -305.734    -385.044
  H     -163.095    -306.213    -383.906
  H     -162.976    -304.616    -384.627
  P     -162.699    -303.477    -388.070
  C     -162.895    -301.807    -386.097
  O     -163.555    -302.704    -386.962
  O     -163.443    -304.134    -389.181
  O     -161.819    -302.281    -388.694
  H     -162.223    -302.011    -389.535
  H     -163.630    -301.385    -385.395
  H     -162.444    -300.988    -386.659
  H     -162.130    -302.334    -385.518
  H     -167.521    -304.240    -383.538
  H     -168.002    -305.530    -384.614
  H     -166.946    -304.262    -385.188

 3  4  5  6  7  8  9  10  11  12  13  23  28  29  30  31  32 0
 6-311+G(2d,p)
 ****
 33  34 0
 6-311+G(2d,p)
 ****
 1  2  14  15  16  17  18  19  20  21  22  24  25  26  27 0
 3-21G
 ****
 35  36  37  38  39  40  41  42  43  44  45 0
 3-21G
 ****


