%nproc=1
%NoSave
%Mem=1900MB
#P OB98/GEN NMR

erre ene a

0 1
  C       12.970     136.440    -261.592
  O       13.078     137.321    -262.714
  P       13.317     138.875    -262.387
  C       11.856     141.011    -262.158
  O       11.883     139.600    -262.324
  C       10.404     141.511    -262.170
  O        9.840     141.465    -263.501
  C        9.466     140.675    -261.309
  O        9.660     140.947    -259.929
  C        8.109     141.103    -261.859
  O        7.721     142.374    -261.310
  C        8.409     141.264    -263.360
  N        5.993     139.731    -267.609
  C        6.219     140.962    -267.088
  N        6.873     141.284    -265.952
  C        7.324     140.178    -265.332
  C        7.174     138.864    -265.740
  C        6.467     138.653    -266.940
  N        6.226     137.396    -267.460
  N        7.771     138.002    -264.842
  C        8.253     138.779    -263.894
  N        8.015     140.109    -264.148
  O       13.965     139.439    -263.742
  O       14.203     139.112    -261.209
  H        7.532     142.238    -260.359
  H       14.912     139.635    -263.599
  H        5.827     141.793    -267.664
  H        8.776     138.436    -263.010
  H        7.910     142.139    -263.793
  H        7.310     140.388    -261.640
  H        9.629     139.604    -261.503
  H       10.398     142.554    -261.819
  H       12.421     141.501    -262.952
  H        5.646     137.329    -268.282
  H        6.497     136.581    -266.929
  H       12.350     141.267    -261.215
  P       10.024     139.715    -258.966
  C        8.779     137.563    -258.311
  O        8.754     138.736    -259.107
  O        9.807     140.364    -257.523
  O       11.353     139.090    -259.212
  H        8.976     140.876    -257.472
  H        7.846     137.012    -258.478
  H        8.853     137.826    -257.251
  H        9.622     136.933    -258.602
  H       12.813     135.440    -261.938
  H       12.144     136.740    -260.981
  H       13.872     136.482    -261.018

 3  4  5  6  7  8  9  10  11  12  22  25  29  30  31  32 0
 6-311+G(2d,p)
 ****
 33  36  37 0
 6-311+G(2d,p)
 ****
 1  2  13  14  15  16  17  18  19  20  21  23  24  26 0
 3-21G
 ****
 27  28  34  35  38  39  40  41  42  43  44  45  46  47  48 0
 3-21G
 ****


