%nproc=1
%NoSave
%Mem=1900MB
#P OB98/GEN NMR

erre ene a

0 1
  C       61.922     -29.903      49.536
  O       61.543     -28.993      50.553
  H       61.447     -30.867      49.736
  H       63.007     -30.037      49.537
  H       61.588     -29.538      48.562
  P       62.121     -27.500      50.427
  C       64.041     -28.215      52.012
  O       63.684     -27.654      50.755
  C       65.559     -28.238      52.175
  O       66.159     -29.112      51.203
  C       66.231     -26.883      51.988
  O       66.132     -26.101      53.167
  C       67.665     -27.313      51.716
  O       68.321     -27.634      52.958
  C       67.477     -28.592      50.878
  N       70.264     -29.544      46.672
  C       70.531     -29.721      47.985
  N       69.762     -29.406      49.048
  C       68.603     -28.852      48.652
  C       68.192     -28.610      47.349
  C       69.078     -28.990      46.328
  N       68.797     -28.817      44.988
  N       66.943     -28.026      47.331
  C       66.583     -27.967      48.598
  N       67.569     -28.421      49.440
  O       61.384     -26.455      51.189
  O       62.123     -27.308      48.836
  H       68.132     -26.910      53.585
  H       62.390     -28.133      48.392
  H       71.490     -30.177      48.211
  H       65.620     -27.622      48.956
  H       68.210     -29.363      51.146
  H       68.253     -26.526      51.239
  H       65.841     -26.360      51.108
  H       65.782     -28.653      53.167
  H       63.641     -29.230      52.104
  H       69.552     -28.959      44.333
  H       67.971     -28.294      44.740
  H       63.586     -27.593      52.789
  P       66.083     -24.500      53.084
  C       68.624     -24.351      53.447
  O       67.535     -24.024      52.590
  O       65.593     -23.820      54.315
  O       65.152     -24.191      51.822
  H       64.589     -23.412      51.997
  H       69.535     -23.987      53.020
  H       68.682     -25.413      53.560
  H       68.473     -23.898      54.405

 6  7  8  9  10  11  12  13  14  15  25  28  32  33  34  35 0
 6-311+G(2d,p)
 ****
 36  39  40 0
 6-311+G(2d,p)
 ****
 1  2  3  4  5  16  17  18  19  20  21  22  23  24 0
 3-21G
 ****
 26  27  29  30  31  37  38  41  42  43  44  45  46  47 0
 3-21G
 ****
 48 0
 3-21G
 ****


