%nproc=1
%NoSave
%Mem=1900MB
#P OB98/GEN NMR

erre ene a

0 1
  C     -174.040     -16.123    -147.447
  O     -173.578     -17.059    -146.493
  H     -174.053     -16.603    -148.430
  H     -173.373     -15.258    -147.492
  H     -175.055     -15.798    -147.204
  P     -173.462     -16.589    -144.966
  C     -175.395     -18.179    -144.330
  O     -174.907     -16.843    -144.318
  C     -176.849     -18.199    -144.791
  O     -176.957     -17.704    -146.139
  C     -177.479     -19.592    -144.787
  O     -177.896     -19.943    -143.476
  C     -178.638     -19.370    -145.747
  O     -179.694     -18.656    -145.077
  C     -177.986     -18.478    -146.818
  N     -178.811     -20.920    -151.183
  C     -179.712     -20.358    -150.296
  N     -181.018     -20.508    -150.597
  N     -179.360     -19.728    -149.205
  C     -178.023     -19.719    -149.002
  C     -177.033     -20.253    -149.795
  C     -177.432     -20.901    -151.027
  O     -176.666     -21.396    -151.851
  N     -175.795     -20.106    -149.226
  C     -176.029     -19.448    -148.111
  N     -177.370     -19.201    -147.917
  O     -172.933     -15.204    -144.735
  O     -172.547     -17.706    -144.282
  H     -180.472     -18.694    -145.665
  H     -171.606     -17.451    -144.297
  H     -179.144     -21.409    -151.997
  H     -175.270     -19.126    -147.407
  H     -178.698     -17.768    -147.255
  H     -179.064     -20.300    -146.126
  H     -181.340     -21.213    -151.250
  H     -176.809     -20.343    -145.218
  H     -181.693     -20.149    -149.937
  H     -177.415     -17.512    -144.149
  H     -175.310     -18.571    -143.312
  H     -174.788     -18.800    -144.999
  P     -177.151     -21.106    -142.653
  C     -178.242     -20.088    -140.543
  O     -177.043     -20.545    -141.156
  O     -175.858     -21.559    -143.242
  O     -178.243     -22.261    -142.513
  H     -178.237     -22.901    -143.269
  H     -178.027     -19.743    -139.553
  H     -178.947     -20.891    -140.496
  H     -178.654     -19.286    -141.119

 6  7  8  9  10  11  12  13  14  15  26  29  33  34 0
 6-311+G(2d,p)
 ****
 36  38  39  40  41 0
 6-311+G(2d,p)
 ****
 1  2  3  4  5  16  17  18  19  20  21  22  23  24  25 0
 3-21G
 ****
 27  28  30  31  32  35  37  42  43  44  45  46  47 0
 3-21G
 ****
 48  49 0
 3-21G
 ****


