%nproc=1
%NoSave
%Mem=1900MB
#P OB98/GEN NMR

erre ene a

0 1
  C     -725.113     867.903     930.656
  O     -723.850     867.463     931.126
  H     -725.895     867.416     931.243
  H     -725.239     867.633     929.604
  H     -725.198     868.984     930.774
  P     -722.561     867.984     930.325
  C     -722.667     870.233     931.619
  O     -722.606     869.584     930.354
  C     -721.594     871.321     931.693
  O     -720.286     870.702     931.840
  C     -721.485     872.168     930.426
  O     -722.483     873.173     930.356
  C     -720.088     872.753     930.598
  O     -720.103     873.927     931.421
  C     -719.323     871.603     931.262
  N     -718.436     870.920     930.327
  C     -717.316     871.651     929.910
  O     -717.076     872.792     930.301
  N     -716.504     871.037     929.002
  C     -716.724     869.812     928.435
  O     -715.986     869.341     927.570
  C     -717.927     869.094     928.893
  C     -718.720     869.676     929.795
  O     -722.901     867.618     928.806
  O     -721.263     867.386     930.771
  H     -722.360     866.852     928.525
  H     -720.799     874.500     931.063
  H     -715.690     871.547     928.692
  H     -718.128     868.117     928.460
  H     -719.614     869.177     930.147
  H     -718.709     871.987     932.101
  H     -719.682     873.045     929.635
  H     -721.497     871.536     929.538
  H     -721.781     871.950     932.559
  H     -722.496     869.518     932.415
  H     -723.672     870.668     931.747
  P     -722.921     873.692     928.898
  C     -724.995     872.045     928.873
  O     -723.796     872.494     928.262
  O     -721.525     873.644     928.127
  O     -723.571     875.032     928.926
  H     -720.924     872.973     928.515
  H     -725.415     871.250     928.293
  H     -725.693     872.854     928.926
  H     -724.782     871.693     929.861

 6  7  8  9  10  11  12  13  14  15  16  27  31  32  33  34  35 0
 6-311+G(2d,p)
 ****
 36  37 0
 6-311+G(2d,p)
 ****
 1  2  3  4  5  17  18  19  20  21  22  23  24  25 0
 3-21G
 ****
 26  28  29  30  38  39  40  41  42  43  44  45 0
 3-21G
 ****


