%nproc=1
%NoSave
%Mem=1900MB
#P OB98/GEN NMR

erre ene a

0 1
  C     -362.687    -157.819     301.080
  O     -362.544    -159.005     301.869
  P     -361.118    -159.736     301.815
  C     -361.373    -162.321     301.952
  O     -361.223    -161.098     302.662
  C     -362.074    -163.355     302.836
  O     -363.390    -162.918     303.230
  C     -362.284    -164.696     302.147
  O     -361.070    -165.429     302.064
  C     -363.345    -165.318     303.048
  O     -362.738    -165.862     304.236
  C     -364.210    -164.099     303.415
  N     -368.793    -166.145     302.439
  C     -367.816    -166.494     303.307
  N     -366.622    -165.898     303.505
  C     -366.483    -164.831     302.701
  C     -367.393    -164.353     301.776
  C     -368.600    -165.067     301.653
  N     -369.592    -164.721     300.762
  N     -366.904    -163.235     301.138
  C     -365.701    -163.054     301.654
  N     -365.410    -163.987     302.611
  O     -360.188    -158.799     302.714
  O     -360.577    -159.894     300.429
  H     -363.464    -166.140     304.830
  H     -359.558    -158.315     302.148
  H     -368.018    -167.368     303.920
  H     -365.013    -162.268     301.366
  H     -364.523    -164.120     304.463
  H     -363.897    -166.131     302.560
  H     -362.691    -164.545     301.139
  H     -361.467    -163.496     303.742
  H     -360.396    -162.703     301.641
  H     -370.393    -165.330     300.682
  H     -369.423    -163.968     300.105
  H     -361.950    -162.130     301.040
  P     -360.987    -166.626     301.003
  C     -359.022    -167.876     302.088
  O     -359.434    -167.041     301.022
  O     -361.122    -165.838     299.619
  O     -361.962    -167.732     301.223
  H     -360.558    -165.042     299.599
  H     -357.964    -168.110     301.961
  H     -359.595    -168.807     302.081
  H     -359.164    -167.365     303.043
  H     -363.676    -157.428     301.200
  H     -362.519    -158.054     300.050
  H     -361.973    -157.089     301.401

 3  4  5  6  7  8  9  10  11  12  22  25  29  30  31  32 0
 6-311+G(2d,p)
 ****
 33  36  37 0
 6-311+G(2d,p)
 ****
 1  2  13  14  15  16  17  18  19  20  21  23  24  26 0
 3-21G
 ****
 27  28  34  35  38  39  40  41  42  43  44  45  46  47  48 0
 3-21G
 ****


