%nproc=1
%NoSave
%Mem=1900MB
#P OB98/GEN NMR

erre ene a

0 1
  C     -338.098      -3.285     299.304
  O     -338.973      -2.630     298.414
  P     -339.560      -3.362     297.125
  C     -342.011      -2.754     297.689
  O     -340.942      -2.619     296.748
  C     -343.347      -2.801     296.953
  O     -343.623      -1.489     296.374
  C     -343.367      -3.845     295.796
  O     -344.453      -4.770     295.854
  C     -343.322      -2.968     294.559
  O     -343.786      -3.609     293.379
  C     -344.089      -1.726     295.024
  N     -343.875      -0.570     294.151
  C     -344.839      -0.327     293.170
  O     -345.847      -0.995     293.005
  N     -344.568       0.721     292.320
  C     -343.417       1.427     292.272
  O     -343.196       2.291     291.417
  C     -342.414       1.102     293.299
  C     -342.687       0.149     294.196
  O     -339.686      -4.847     297.243
  O     -338.597      -2.881     295.948
  H     -343.552      -3.041     292.627
  H     -338.568      -1.922     295.812
  H     -345.270       0.901     291.612
  H     -341.485       1.647     293.280
  H     -341.971      -0.118     294.975
  H     -345.161      -1.911     295.069
  H     -342.267      -2.694     294.375
  H     -342.483      -4.476     295.833
  H     -344.131      -3.030     297.687
  H     -342.002      -1.891     298.352
  H     -341.851      -3.651     298.297
  P     -344.581      -6.093     294.965
  C     -344.820      -7.865     296.874
  O     -345.426      -7.176     295.793
  O     -343.290      -6.603     294.404
  O     -345.580      -5.662     293.789
  H     -345.385      -6.187     292.983
  H     -345.291      -8.839     296.975
  H     -344.973      -7.292     297.793
  H     -343.746      -8.001     296.708
  H     -337.827      -2.617     300.094
  H     -337.218      -3.591     298.778
  H     -338.585      -4.145     299.715

 3  4  5  6  7  8  9  10  11  12  13  23  28  29  30  31  32 0
 6-311+G(2d,p)
 ****
 33  34 0
 6-311+G(2d,p)
 ****
 1  2  14  15  16  17  18  19  20  21  22  24  25  26  27 0
 3-21G
 ****
 35  36  37  38  39  40  41  42  43  44  45 0
 3-21G
 ****


