%nproc=1
%NoSave
%Mem=1900MB
#P OB98/GEN NMR

erre ene a

0 1
  C     -386.968     129.245     172.022
  O     -385.995     128.906     172.996
  P     -386.103     129.474     174.492
  C     -386.836     127.214     175.480
  O     -387.196     128.572     175.246
  C     -386.787     126.916     176.976
  O     -386.527     125.505     177.164
  C     -385.698     127.686     177.714
  O     -386.176     128.035     179.015
  C     -384.569     126.681     177.873
  O     -383.746     126.998     179.009
  C     -385.350     125.370     177.985
  N     -381.189     122.460     178.738
  C     -381.675     123.522     179.415
  N     -382.771     124.261     179.143
  C     -383.421     123.770     178.077
  C     -383.047     122.695     177.287
  C     -381.868     122.023     177.652
  N     -381.379     120.930     176.965
  N     -383.948     122.507     176.254
  C     -384.857     123.442     176.435
  N     -384.589     124.225     177.527
  O     -386.339     130.941     174.594
  O     -384.733     129.041     175.190
  H     -383.066     126.294     179.074
  H     -384.418     129.747     175.786
  H     -381.107     123.818     180.291
  H     -385.715     123.603     175.799
  H     -385.676     125.177     179.016
  H     -383.935     126.698     176.982
  H     -385.379     128.588     177.180
  H     -387.773     127.129     177.406
  H     -385.844     127.043     175.045
  H     -380.599     120.441     177.373
  H     -381.975     120.501     176.268
  H     -387.550     126.558     174.977
  P     -385.853     129.536     179.504
  C     -387.808     130.419     178.027
  O     -386.434     130.471     178.345
  O     -384.418     129.714     179.872
  O     -386.881     129.691     180.726
  H     -387.654     129.088     180.625
  H     -388.000     131.099     177.192
  H     -388.403     130.746     178.884
  H     -388.095     129.406     177.739
  H     -386.723     128.772     171.094
  H     -386.984     130.306     171.888
  H     -387.931     128.912     172.349

 3  4  5  6  7  8  9  10  11  12  22  25  29  30  31  32 0
 6-311+G(2d,p)
 ****
 33  36  37 0
 6-311+G(2d,p)
 ****
 1  2  13  14  15  16  17  18  19  20  21  23  24  26 0
 3-21G
 ****
 27  28  34  35  38  39  40  41  42  43  44  45  46  47  48 0
 3-21G
 ****


