%nproc=1
%NoSave
%Mem=1900MB
#P OB98/GEN NMR

erre ene a

0 1
  C       65.478    1467.664     171.667
  O       66.170    1466.412     171.644
  P       65.427    1465.182     172.368
  C       64.526    1464.083     170.198
  O       64.210    1464.720     171.427
  C       63.353    1463.252     169.682
  O       63.288    1461.947     170.342
  C       61.981    1463.903     169.888
  O       61.161    1463.544     168.765
  C       61.459    1463.222     171.134
  O       60.055    1463.360     171.257
  C       61.960    1461.804     170.870
  N       59.970    1457.644     172.955
  C       59.675    1458.285     171.765
  N       58.735    1457.688     170.983
  N       60.244    1459.380     171.362
  C       61.192    1459.843     172.217
  C       61.586    1459.294     173.426
  C       60.923    1458.082     173.858
  O       61.156    1457.488     174.910
  N       62.598    1460.041     173.989
  C       62.749    1461.048     173.168
  N       61.963    1460.958     172.059
  O       64.702    1465.883     173.610
  O       66.355    1464.096     172.799
  H       59.656    1463.222     170.366
  H       65.224    1465.725     174.428
  H       59.494    1456.800     173.219
  H       63.442    1461.864     173.307
  H       61.348    1461.274     170.121
  H       61.931    1463.635     172.029
  H       58.299    1456.812     171.200
  H       62.018    1464.997     169.987
  H       58.524    1458.099     170.087
  H       63.511    1463.057     168.606
  H       65.401    1463.433     170.326
  H       64.834    1464.850     169.473
  P       60.725    1464.698     167.746
  C       61.334    1463.326     165.634
  O       61.565    1464.486     166.405
  O       61.370    1466.009     168.406
  O       59.262    1464.842     167.578
  H       60.749    1466.760     168.292
  H       61.589    1463.534     164.597
  H       60.287    1463.010     165.685
  H       61.970    1462.514     165.997
  H       66.062    1468.404     171.160
  H       65.322    1467.967     172.681
  H       64.533    1467.558     171.177

 3  4  5  6  7  8  9  10  11  12  23  26  30  31 0
 6-311+G(2d,p)
 ****
 33  35  36  37  38 0
 6-311+G(2d,p)
 ****
 1  2  13  14  15  16  17  18  19  20  21  22  24  25 0
 3-21G
 ****
 27  28  29  32  34  39  40  41  42  43  44  45  46  47  48  49 0
 3-21G
 ****


