%nproc=1
%NoSave
%Mem=1900MB
#P OB98/GEN NMR

erre ene a

0 1
  C       96.969     431.484     403.497
  O       96.713     430.219     404.084
  P       97.643     429.766     405.312
  C       95.883     430.842     406.893
  O       97.259     430.701     406.559
  C       95.627     430.399     408.335
  O       94.208     430.554     408.624
  C       95.998     428.937     408.632
  O       96.473     428.896     409.982
  C       94.656     428.233     408.500
  O       94.617     426.944     409.088
  C       93.739     429.281     409.123
  N       89.514     426.627     410.242
  C       90.741     426.645     410.806
  N       91.812     427.383     410.460
  C       91.526     428.178     409.418
  C       90.326     428.259     408.726
  C       89.286     427.434     409.180
  N       88.033     427.413     408.592
  N       90.414     429.169     407.690
  C       91.646     429.633     407.759
  N       92.348     429.078     408.794
  O       99.088     430.300     404.885
  O       97.648     428.294     405.593
  H       93.694     426.632     409.142
  H       99.786     429.665     405.137
  H       90.880     425.974     411.654
  H       92.080     430.349     407.072
  H       93.824     429.302     410.217
  H       94.425     428.108     407.434
  H       96.771     428.541     407.968
  H       96.173     431.071     409.008
  H       95.282     430.214     406.229
  H       87.427     426.651     408.859
  H       87.942     427.854     407.684
  H       95.578     431.883     406.742
  P       97.642     427.867     410.365
  C       99.194     429.720     409.493
  O       98.882     428.342     409.459
  O       97.158     426.549     409.581
  O       97.889     427.667     411.816
  H       96.949     426.745     408.647
  H      100.107     429.887     408.915
  H       99.356     430.053     410.520
  H       98.380     430.294     409.035
  H       96.279     431.652     402.697
  H       97.969     431.505     403.116
  H       96.853     432.250     404.235

 3  4  5  6  7  8  9  10  11  12  22  25  29  30  31  32 0
 6-311+G(2d,p)
 ****
 33  36  37 0
 6-311+G(2d,p)
 ****
 1  2  13  14  15  16  17  18  19  20  21  23  24  26 0
 3-21G
 ****
 27  28  34  35  38  39  40  41  42  43  44  45  46  47  48 0
 3-21G
 ****


