%nproc=1
%NoSave
%Mem=1900MB
#P OB98/GEN NMR

erre ene a

0 1
  C      183.500      35.684    -153.959
  O      183.116      36.405    -155.112
  H      183.072      34.679    -154.015
  H      183.121      36.177    -153.059
  H      184.588      35.603    -153.910
  P      183.594      37.936    -155.201
  C      181.147      38.779    -154.964
  O      182.474      38.811    -154.456
  C      180.891      40.021    -155.808
  O      179.636      39.887    -156.516
  C      180.761      41.306    -154.999
  O      182.022      41.815    -154.598
  C      180.051      42.206    -155.998
  O      180.980      42.817    -156.912
  C      179.121      41.217    -156.736
  N      177.732      41.343    -156.305
  C      176.984      42.317    -156.962
  O      177.443      43.041    -157.847
  N      175.692      42.465    -156.536
  C      175.098      41.774    -155.515
  O      173.955      42.008    -155.136
  C      175.935      40.749    -154.868
  C      177.195      40.588    -155.280
  O      183.389      38.288    -156.749
  O      184.992      38.189    -154.747
  H      184.248      38.278    -157.209
  H      180.443      43.366    -157.515
  H      175.136      43.172    -156.990
  H      175.492      40.177    -154.061
  H      177.836      39.851    -154.804
  H      179.158      41.393    -157.818
  H      179.516      43.015    -155.500
  H      180.102      41.148    -154.137
  H      181.697      40.111    -156.550
  H      180.436      38.759    -154.129
  H      181.015      37.868    -155.559
  P      182.099      42.699    -153.260
  C      181.385      44.807    -154.657
  O      181.190      43.997    -153.511
  O      183.598      43.247    -153.338
  O      181.770      41.937    -152.021
  H      183.884      43.438    -154.248
  H      180.687      45.618    -154.644
  H      181.234      44.220    -155.539
  H      182.382      45.195    -154.654

 6  7  8  9  10  11  12  13  14  15  16  27  31  32  33  34  35 0
 6-311+G(2d,p)
 ****
 36  37 0
 6-311+G(2d,p)
 ****
 1  2  3  4  5  17  18  19  20  21  22  23  24  25 0
 3-21G
 ****
 26  28  29  30  38  39  40  41  42  43  44  45 0
 3-21G
 ****


