%nproc=1
%NoSave
%Mem=1900MB
#P OB98/GEN NMR

erre ene a

0 1
  C      -43.880    -292.809     309.925
  O      -43.636    -293.636     308.806
  H      -44.041    -293.441     310.803
  H      -44.782    -292.218     309.750
  H      -43.032    -292.147     310.116
  P      -42.990    -292.947     307.510
  C      -40.903    -294.488     307.415
  O      -41.402    -293.174     307.613
  C      -39.890    -294.507     306.271
  O      -38.744    -293.685     306.650
  C      -39.361    -295.910     305.921
  O      -39.169    -295.990     304.504
  C      -37.997    -295.931     306.587
  O      -37.118    -296.875     305.989
  C      -37.569    -294.479     306.402
  N      -32.574    -294.043     306.619
  C      -33.413    -294.223     305.536
  N      -32.832    -294.373     304.327
  N      -34.716    -294.259     305.632
  C      -35.168    -294.078     306.899
  C      -34.444    -293.894     308.050
  C      -33.000    -293.873     307.935
  O      -32.203    -293.739     308.855
  N      -35.272    -293.811     309.142
  C      -36.491    -293.967     308.650
  N      -36.477    -294.131     307.293
  O      -43.169    -291.386     307.821
  O      -43.607    -293.331     306.208
  H      -36.302    -296.917     306.529
  H      -43.986    -291.057     307.401
  H      -31.577    -294.039     306.491
  H      -37.401    -293.984     309.231
  H      -37.225    -294.270     305.379
  H      -38.104    -296.177     307.651
  H      -31.840    -294.325     304.169
  H      -40.012    -296.725     306.253
  H      -33.438    -294.466     303.519
  H      -40.344    -294.035     305.392
  H      -41.735    -295.154     307.165
  H      -40.439    -294.841     308.341
  P      -39.877    -297.194     303.715
  C      -41.843    -295.850     302.661
  O      -41.441    -296.862     303.573
  O      -39.852    -298.389     304.779
  O      -39.187    -297.574     302.446
  H      -39.734    -299.240     304.316
  H      -42.908    -295.751     302.685
  H      -41.531    -296.116     301.673
  H      -41.392    -294.920     302.939

 6  7  8  9  10  11  12  13  14  15  26  29  33  34 0
 6-311+G(2d,p)
 ****
 36  38  39  40  41 0
 6-311+G(2d,p)
 ****
 1  2  3  4  5  16  17  18  19  20  21  22  23  24  25 0
 3-21G
 ****
 27  28  30  31  32  35  37  42  43  44  45  46  47 0
 3-21G
 ****
 48  49 0
 3-21G
 ****


