%nproc=1
%NoSave
%Mem=1900MB
#P OB98/GEN NMR

erre ene a

0 1
  C     -163.494      46.133     334.292
  O     -162.158      46.251     334.742
  H     -164.129      45.883     335.146
  H     -163.574      45.334     333.547
  H     -163.833      47.083     333.868
  P     -161.052      46.582     333.626
  C     -160.240      44.134     333.872
  O     -160.691      45.155     332.989
  C     -160.827      42.785     333.473
  O     -162.260      42.875     333.366
  C     -160.329      42.252     332.134
  O     -159.083      41.600     332.290
  C     -161.436      41.266     331.783
  O     -161.221      40.029     332.488
  C     -162.697      41.965     332.323
  N     -167.309      42.598     330.156
  C     -166.832      41.645     330.982
  N     -165.584      41.507     331.474
  C     -164.783      42.497     331.038
  C     -165.131      43.539     330.187
  C     -166.463      43.573     329.741
  N     -166.946      44.547     328.891
  N     -164.049      44.363     329.950
  C     -163.089      43.861     330.696
  N     -163.470      42.713     331.346
  O     -159.899      47.413     334.086
  O     -161.959      47.249     332.487
  H     -161.959      39.434     332.250
  H     -162.800      46.769     332.395
  H     -167.549      40.889     331.286
  H     -162.101      44.299     330.819
  H     -163.391      41.246     332.783
  H     -161.462      41.028     330.721
  H     -160.296      43.043     331.371
  H     -160.607      42.068     334.278
  H     -160.528      44.373     334.906
  H     -167.847      44.385     328.475
  H     -166.282      45.190     328.487
  H     -159.145      44.105     333.818
  P     -157.725      42.263     331.756
  C     -157.684      40.381     330.000
  O     -157.605      41.784     330.227
  O     -156.530      42.007     332.609
  O     -158.073      43.815     331.622
  H     -157.247      44.340     331.557
  H     -157.592      40.183     328.952
  H     -158.626      40.015     330.351
  H     -156.893      39.889     330.526

 6  7  8  9  10  11  12  13  14  15  25  28  32  33  34  35 0
 6-311+G(2d,p)
 ****
 36  39  40 0
 6-311+G(2d,p)
 ****
 1  2  3  4  5  16  17  18  19  20  21  22  23  24 0
 3-21G
 ****
 26  27  29  30  31  37  38  41  42  43  44  45  46  47 0
 3-21G
 ****
 48 0
 3-21G
 ****


