%nproc=1
%NoSave
%Mem=1900MB
#P OB98/GEN NMR

erre ene a

0 1
  C       97.139      39.476    -158.050
  O       96.815      40.852    -158.053
  H       97.021      39.090    -157.034
  H       98.176      39.324    -158.363
  H       96.466      38.925    -158.716
  P       96.985      41.676    -159.415
  C       98.998      41.913    -161.026
  O       98.562      41.801    -159.673
  C      100.404      41.333    -161.187
  O      100.444      39.977    -160.702
  C      100.889      41.273    -162.633
  O      101.260      42.561    -163.090
  C      102.027      40.273    -162.501
  O      103.199      40.896    -161.954
  C      101.427      39.262    -161.496
  N      100.825      38.094    -162.134
  C      101.103      36.857    -161.536
  O      101.829      36.798    -160.545
  N      100.561      35.726    -162.097
  C       99.780      35.820    -163.126
  N       99.272      34.658    -163.633
  C       99.433      37.105    -163.764
  C       99.992      38.189    -163.229
  O       96.240      42.972    -159.504
  O       96.513      40.647    -160.551
  H      103.919      40.241    -162.037
  H       95.570      40.779    -160.762
  H       98.768      37.138    -164.616
  H       99.790      39.176    -163.632
  H      102.199      38.911    -160.796
  H      102.313      39.843    -163.461
  H      100.116      40.836    -163.277
  H      101.086      41.927    -160.566
  H       99.524      33.804    -163.149
  H       98.999      42.978    -161.277
  H       98.535      34.626    -164.319
  H       98.301      41.400    -161.700
  P      101.948      42.777    -164.519
  C      104.311      42.432    -165.481
  O      103.504      42.425    -164.313
  O      101.683      44.100    -165.158
  O      101.426      41.536    -165.384
  H      100.493      41.690    -165.681
  H      105.319      42.185    -165.220
  H      104.286      43.405    -165.926
  H      103.936      41.711    -166.178

 6  7  8  9  10  11  12  13  14  15  16  26  30  31  32  33  35 0
 6-311+G(2d,p)
 ****
 37  38 0
 6-311+G(2d,p)
 ****
 1  2  3  4  5  17  18  19  20  21  22  23  24  25 0
 3-21G
 ****
 27  28  29  34  36  39  40  41  42  43  44  45  46 0
 3-21G
 ****


