%nproc=1
%NoSave
%Mem=1900MB
#P OB98/GEN NMR

erre ene a

0 1
  C      256.049     156.758     307.620
  O      256.059     155.362     307.880
  P      254.894     154.774     308.817
  C      255.943     152.405     308.667
  O      255.518     153.468     309.513
  C      257.105     151.649     309.301
  O      258.321     152.405     309.146
  C      256.962     151.406     310.795
  O      256.128     150.295     311.076
  C      258.407     151.124     311.185
  O      258.725     149.748     310.896
  C      259.189     152.065     310.256
  N      263.174     154.698     311.940
  C      263.128     153.470     311.312
  N      264.314     152.868     311.073
  N      262.019     152.879     310.949
  C      260.913     153.614     311.214
  C      260.831     154.844     311.833
  C      262.065     155.460     312.273
  O      262.162     156.517     312.894
  N      259.533     155.277     311.910
  C      258.835     154.336     311.307
  N      259.624     153.289     310.894
  O      253.851     154.168     307.765
  O      254.250     155.765     309.727
  H      259.588     149.561     311.309
  H      252.956     154.144     308.156
  H      264.057     155.113     312.177
  H      257.767     154.370     311.150
  H      260.067     151.563     309.831
  H      258.599     151.278     312.251
  H      265.202     153.327     311.207
  H      256.612     152.311     311.312
  H      264.302     151.985     310.579
  H      257.226     150.697     308.766
  H      256.269     152.814     307.705
  H      255.096     151.734     308.493
  P      255.570     150.172     312.580
  C      253.680     148.616     311.704
  O      254.750     148.795     312.613
  O      254.438     151.300     312.643
  O      256.610     150.348     313.637
  H      254.317     151.600     313.566
  H      253.900     149.079     310.735
  H      252.772     149.059     312.120
  H      253.521     147.546     311.554
  H      256.875     157.009     306.988
  H      256.131     157.293     308.543
  H      255.134     157.024     307.134

 3  4  5  6  7  8  9  10  11  12  23  26  30  31  33  0
 6-311+G(2d,p)
 ****
 35  36  37  38 0
 6-311+G(2d,p)
 ****
 1  2  13  14  15  16  17  18  19  20  21  22  24  25  27  28  29 0
 3-21G
 ****
 32  34  39  40  41  42  43  44  45  46  47  48  49 0
 3-21G
 ****


