%nproc=1
%NoSave
%Mem=1900MB
#P OB98/GEN NMR

erre ene a

0 1
  C      444.204      60.370      41.856
  O      443.870      60.343      43.233
  P      443.188      61.652      43.863
  C      441.942      60.209      45.622
  O      442.821      61.300      45.380
  C      441.247      60.337      46.981
  O      442.245      60.203      48.028
  C      440.518      61.662      47.190
  O      439.322      61.392      47.935
  C      441.472      62.458      48.059
  O      440.788      63.461      48.811
  C      442.112      61.344      48.898
  N      443.407      61.740      49.452
  C      443.411      62.296      50.736
  O      442.337      62.498      51.316
  N      444.599      62.654      51.310
  C      445.697      62.567      50.613
  N      446.857      62.936      51.217
  C      445.730      62.109      49.203
  C      444.562      61.698      48.707
  O      441.760      61.700      43.135
  O      443.967      62.916      43.656
  H      441.457      64.050      49.220
  H      441.462      62.623      43.006
  H      446.663      62.097      48.660
  H      444.496      61.319      47.684
  H      441.459      61.060      49.730
  H      442.223      62.955      47.428
  H      440.257      62.160      46.248
  H      440.549      59.492      47.087
  H      446.808      63.257      52.178
  H      442.516      59.278      45.613
  H      447.755      62.900      50.756
  H      441.199      60.166      44.814
  P      437.914      61.745      47.250
  C      436.493      60.040      48.550
  O      436.816      61.406      48.364
  O      437.743      60.508      46.235
  O      437.783      63.047      46.529
  H      436.933      60.634      45.700
  H      435.843      59.946      49.415
  H      437.399      59.455      48.707
  H      435.958      59.657      47.658
  H      444.647      59.437      41.578
  H      444.898      61.163      41.673
  H      443.318      60.530      41.277

 3  4  5  6  7  8  9  10  11  12  13  21  23  27  28  29  30  32 0
 6-311+G(2d,p)
 ****
 34  35 0
 6-311+G(2d,p)
 ****
 1  2  14  15  16  17  18  19  20  22  24  25  26 0
 3-21G
 ****
 31  33  36  37  38  39  40  41  42  43  44  45  46 0
 3-21G
 ****


