%nproc=1
%NoSave
%Mem=1900MB
#P OB98/GEN NMR

erre ene a

0 1
  C      169.696     172.706     348.792
  O      169.215     171.594     349.554
  P      167.642     171.543     349.874
  C      166.188     170.488     347.967
  O      167.079     170.286     349.054
  C      166.016     169.189     347.181
  O      167.272     168.781     346.590
  C      165.563     168.009     348.025
  O      164.187     168.106     348.361
  C      165.916     166.844     347.107
  O      164.902     166.675     346.102
  C      167.224     167.338     346.454
  N      168.415     166.710     347.014
  C      169.233     166.050     346.102
  O      168.978     165.967     344.901
  N      170.358     165.467     346.624
  C      170.715     165.455     347.942
  O      171.741     164.924     348.349
  C      169.785     166.126     348.861
  C      168.693     166.714     348.365
  O      167.121     172.817     349.062
  O      167.345     171.554     351.334
  H      167.608     172.962     348.232
  H      164.080     166.438     346.577
  H      170.971     164.993     345.979
  H      170.024     166.113     349.919
  H      167.992     167.214     349.028
  H      167.209     167.137     345.375
  H      166.004     165.896     347.647
  H      166.166     167.952     348.943
  H      165.296     169.374     346.372
  H      166.582     171.261     347.300
  H      165.229     170.844     348.357
  P      163.793     167.805     349.891
  C      164.143     169.091     352.139
  O      164.445     168.978     350.766
  O      164.710     166.531     350.203
  O      162.331     167.579     350.098
  H      165.616     166.623     349.868
  H      164.918     169.696     352.620
  H      164.108     168.115     352.626
  H      163.179     169.597     352.261
  H      170.753     172.613     348.654
  H      169.483     173.615     349.314
  H      169.212     172.721     347.838

 3  4  5  6  7  8  9  10  11  12  13  24  28  29  30  31  32 0
 6-311+G(2d,p)
 ****
 33  34 0
 6-311+G(2d,p)
 ****
 1  2  14  15  16  17  18  19  20  21  22  23  25  26  27 0
 3-21G
 ****
 35  36  37  38  39  40  41  42  43  44  45 0
 3-21G
 ****


