%nproc=1
%NoSave
%Mem=1900MB
#P OB98/GEN NMR

erre ene a

0 1
  C      197.550     203.509    -441.937
  O      197.328     204.141    -443.176
  P      196.693     205.624    -443.213
  C      197.874     206.307    -445.401
  O      196.631     206.090    -444.763
  C      197.656     206.894    -446.798
  O      196.591     207.869    -446.785
  C      198.873     207.634    -447.359
  O      199.848     206.706    -447.816
  C      198.234     208.466    -448.465
  O      198.028     207.676    -449.652
  C      196.879     208.826    -447.821
  N      196.492     213.788    -448.975
  C      196.660     212.679    -449.752
  N      196.789     211.399    -449.370
  C      196.758     211.307    -448.018
  C      196.645     212.350    -447.114
  C      196.471     213.646    -447.629
  N      196.251     214.750    -446.848
  N      196.713     211.843    -445.810
  C      196.862     210.550    -445.950
  N      196.842     210.168    -447.258
  O      197.329     206.600    -442.284
  O      195.153     205.385    -442.842
  H      197.801     208.305    -450.358
  H      194.944     205.882    -442.025
  H      196.665     212.867    -450.822
  H      196.978     209.841    -445.129
  H      196.052     208.760    -448.560
  H      198.825     209.332    -448.725
  H      199.288     208.299    -446.587
  H      197.361     206.076    -447.467
  H      198.414     205.366    -445.485
  H      195.993     215.599    -447.343
  H      195.936     214.620    -445.898
  H      198.483     207.016    -444.788
  P      201.422     207.095    -447.713
  C      201.493     204.568    -448.180
  O      202.244     205.744    -448.009
  O      201.818     207.843    -446.472
  O      201.664     207.981    -449.035
  H      202.352     208.637    -448.847
  H      201.171     204.199    -447.187
  H      202.110     203.821    -448.652
  H      200.594     204.758    -448.797
  H      197.972     202.540    -442.102
  H      196.621     203.409    -441.416
  H      198.225     204.098    -441.352

 3  4  5  6  7  8  9  10  11  12  22  25  29  30  31  32 0
 6-311+G(2d,p)
 ****
 33  36  37 0
 6-311+G(2d,p)
 ****
 1  2  13  14  15  16  17  18  19  20  21  23  24  26 0
 3-21G
 ****
 27  28  34  35  38  39  40  41  42  43  44  45  46  47  48 0
 3-21G
 ****


