%nproc=1
%NoSave
%Mem=1900MB
#P OB98/GEN NMR

erre ene a

0 1
  C     -295.853    -323.122     -15.953
  O     -296.670    -322.335     -16.795
  H     -295.700    -324.099     -16.425
  H     -296.340    -323.274     -14.988
  H     -294.882    -322.643     -15.811
  P     -297.068    -320.877     -16.261
  C     -298.988    -319.905     -14.802
  O     -298.365    -321.065     -15.334
  C     -300.490    -320.142     -14.671
  O     -301.054    -320.438     -15.971
  C     -300.858    -321.328     -13.791
  O     -300.771    -321.018     -12.407
  C     -302.284    -321.595     -14.246
  O     -303.221    -320.740     -13.570
  C     -302.220    -321.263     -15.754
  N     -302.200    -322.467     -16.585
  C     -303.433    -322.864     -17.093
  O     -304.482    -322.258     -16.877
  N     -303.426    -324.011     -17.839
  C     -302.337    -324.804     -18.086
  O     -302.415    -325.860     -18.701
  C     -301.062    -324.324     -17.530
  C     -301.051    -323.199     -16.805
  O     -297.638    -320.151     -17.572
  O     -295.954    -320.108     -15.629
  H     -296.971    -319.539     -17.928
  H     -303.054    -319.837     -13.902
  H     -304.312    -324.323     -18.212
  H     -300.177    -324.926     -17.712
  H     -300.123    -322.840     -16.369
  H     -303.089    -320.662     -16.052
  H     -302.587    -322.623     -14.041
  H     -300.237    -322.196     -14.045
  H     -300.958    -319.220     -14.298
  H     -298.817    -319.058     -15.473
  H     -298.543    -319.678     -13.827
  P     -299.840    -321.932     -11.476
  C     -300.324    -323.701      -9.597
  O     -300.825    -322.879     -10.636
  O     -299.322    -320.858     -10.409
  O     -298.762    -322.650     -12.222
  H     -299.992    -320.190     -10.187
  H     -301.129    -324.253      -9.160
  H     -299.863    -323.090      -8.849
  H     -299.601    -324.381      -9.997

 6  7  8  9  10  11  12  13  14  15  16  27  31  32  33  34  35 0
 6-311+G(2d,p)
 ****
 36  37 0
 6-311+G(2d,p)
 ****
 1  2  3  4  5  17  18  19  20  21  22  23  24  25 0
 3-21G
 ****
 26  28  29  30  38  39  40  41  42  43  44  45 0
 3-21G
 ****


