%nproc=1
%NoSave
%Mem=1900MB
#P OB98/GEN NMR

erre ene a

0 1
  C     -648.294     217.154    -224.376
  O     -647.084     216.580    -224.834
  P     -646.388     215.478    -223.901
  C     -643.983     216.187    -224.591
  O     -644.974     215.161    -224.581
  C     -642.983     215.958    -225.722
  O     -642.216     214.769    -225.449
  C     -643.609     215.737    -227.083
  O     -644.027     216.967    -227.643
  C     -642.472     215.068    -227.842
  O     -641.596     216.048    -228.425
  C     -641.754     214.270    -226.725
  N     -641.962     212.835    -226.846
  C     -641.340     212.216    -227.948
  O     -640.696     212.896    -228.751
  N     -641.512     210.865    -228.119
  C     -642.236     210.192    -227.286
  N     -642.368     208.856    -227.507
  C     -642.921     210.803    -226.121
  C     -642.737     212.122    -225.975
  O     -647.247     214.158    -224.187
  O     -646.352     215.827    -222.446
  H     -642.150     216.563    -229.048
  H     -647.219     213.547    -223.433
  H     -643.505     210.199    -225.456
  H     -643.208     212.652    -225.149
  H     -640.668     214.459    -226.766
  H     -642.844     214.441    -228.657
  H     -644.465     215.043    -227.003
  H     -642.282     216.814    -225.745
  H     -641.891     208.463    -228.311
  H     -643.452     216.196    -223.638
  H     -642.894     208.245    -226.892
  H     -644.487     217.164    -224.716
  P     -645.551     217.078    -228.153
  C     -645.241     218.473    -230.274
  O     -645.614     218.478    -228.920
  O     -646.346     217.404    -226.795
  O     -646.114     215.895    -228.862
  H     -647.303     217.393    -226.958
  H     -645.480     219.446    -230.723
  H     -645.771     217.699    -230.828
  H     -644.153     218.307    -230.356
  H     -648.644     217.868    -225.092
  H     -648.125     217.643    -223.439
  H     -649.028     216.386    -224.250

 3  4  5  6  7  8  9  10  11  12  13  21  23  27  28  29  30  32 0
 6-311+G(2d,p)
 ****
 34  35 0
 6-311+G(2d,p)
 ****
 1  2  14  15  16  17  18  19  20  22  24  25  26 0
 3-21G
 ****
 31  33  36  37  38  39  40  41  42  43  44  45  46 0
 3-21G
 ****


