%nproc=1
%NoSave
%Mem=1900MB
#P OB98/GEN NMR

erre ene a

0 1
  C     -103.180      89.881    -128.514
  O     -104.115      88.812    -128.588
  P     -104.993      88.570    -129.907
  C     -104.592      86.030    -130.050
  O     -104.324      87.308    -130.633
  C     -103.304      85.444    -129.473
  O     -102.958      86.184    -128.274
  C     -103.389      83.979    -129.025
  O     -103.192      83.031    -130.066
  C     -102.212      83.916    -128.056
  O     -100.975      83.802    -128.793
  C     -102.289      85.276    -127.363
  N     -102.397      83.277    -122.647
  C     -101.502      83.162    -123.668
  N     -101.555      83.717    -124.898
  C     -102.647      84.486    -125.021
  C     -103.641      84.700    -124.076
  C     -103.487      84.053    -122.839
  N     -104.383      84.194    -121.800
  N     -104.624      85.542    -124.586
  C     -104.214      85.834    -125.798
  N     -103.026      85.224    -126.108
  O     -105.183      89.784    -130.757
  O     -106.373      87.974    -129.357
  H     -101.030      82.970    -129.303
  H     -107.067      88.042    -130.044
  H     -100.633      82.537    -123.460
  H     -104.741      86.476    -126.489
  H     -101.297      85.699    -127.152
  H     -102.261      83.053    -127.383
  H     -104.317      83.781    -128.476
  H     -102.500      85.582    -130.204
  H     -104.974      85.372    -130.836
  H     -104.123      83.803    -120.910
  H     -105.102      84.898    -121.885
  H     -105.365      86.129    -129.277
  P     -104.321      81.908    -130.255
  C     -104.692      81.727    -132.843
  O     -105.095      82.289    -131.606
  O     -105.191      81.688    -129.055
  O     -103.466      80.618    -130.667
  H     -103.033      80.668    -131.532
  H     -105.440      81.979    -133.599
  H     -104.619      80.630    -132.772
  H     -103.725      82.144    -133.140
  H     -102.700      89.870    -127.558
  H     -103.691      90.812    -128.646
  H     -102.445      89.766    -129.283

 3  4  5  6  7  8  9  10  11  12  22  25  29  30  31  32 0
 6-311+G(2d,p)
 ****
 33  36  37 0
 6-311+G(2d,p)
 ****
 1  2  13  14  15  16  17  18  19  20  21  23  24  26 0
 3-21G
 ****
 27  28  34  35  38  39  40  41  42  43  44  45  46  47  48 0
 3-21G
 ****


