%nproc=1
%NoSave
%Mem=1900MB
#P OB98/GEN NMR

erre ene a

0 1
  C      473.244     489.162      27.717
  O      472.424     488.181      27.100
  P      471.476     487.222      27.980
  C      471.977     485.072      29.321
  O      472.340     485.893      28.222
  C      473.231     484.532      30.011
  O      474.121     485.636      30.321
  C      472.975     483.825      31.329
  O      472.460     482.519      31.107
  C      474.359     483.885      31.966
  O      475.213     482.865      31.414
  C      474.850     485.277      31.516
  N      474.704     486.297      32.556
  C      475.754     486.405      33.475
  O      476.744     485.688      33.394
  N      475.664     487.367      34.453
  C      474.616     488.131      34.525
  N      474.615     489.111      35.481
  C      473.463     488.009      33.612
  C      473.579     487.084      32.650
  O      470.122     486.984      27.406
  O      471.454     487.893      29.428
  H      474.740     482.020      31.507
  H      470.745     488.575      29.542
  H      472.609     488.667      33.721
  H      472.788     486.947      31.929
  H      475.908     485.227      31.223
  H      474.345     483.760      33.057
  H      472.257     484.397      31.942
  H      473.750     483.875      29.306
  H      475.495     489.272      35.967
  H      471.389     484.228      28.950
  H      473.996     489.913      35.415
  H      471.362     485.650      30.019
  P      471.944     481.700      32.389
  C      473.144     481.665      34.695
  O      473.246     481.438      33.305
  O      471.585     480.259      31.787
  O      470.788     482.333      33.094
  H      470.617     480.178      31.661
  H      474.014     481.216      35.187
  H      472.236     481.194      35.090
  H      473.130     482.732      34.907
  H      473.793     489.691      26.966
  H      473.927     488.685      28.389
  H      472.630     489.849      28.261

 3  4  5  6  7  8  9  10  11  12  13  23  27  28  29  30  32 0
 6-311+G(2d,p)
 ****
 34  35 0
 6-311+G(2d,p)
 ****
 1  2  14  15  16  17  18  19  20  21  22  24  25  26 0
 3-21G
 ****
 31  33  36  37  38  39  40  41  42  43  44  45  46 0
 3-21G
 ****


