%nproc=1
%NoSave
%Mem=1900MB
#P OB98/GEN NMR

erre ene a

0 1
  C     -185.902    -126.113    -282.863
  O     -185.942    -125.897    -281.466
  H     -186.896    -126.420    -283.199
  H     -185.189    -126.907    -283.102
  H     -185.624    -125.191    -283.381
  P     -184.562    -125.460    -280.772
  C     -184.887    -123.091    -279.770
  O     -184.487    -123.861    -280.894
  C     -185.704    -121.881    -280.218
  O     -186.996    -122.295    -280.717
  C     -185.968    -120.859    -279.118
  O     -184.866    -119.985    -278.956
  C     -187.204    -120.153    -279.661
  O     -186.854    -119.161    -280.648
  C     -187.981    -121.312    -280.301
  N     -192.161    -120.489    -277.591
  C     -191.462    -119.644    -278.429
  N     -191.917    -118.374    -278.518
  N     -190.410    -120.005    -279.112
  C     -190.050    -121.294    -278.899
  C     -190.671    -122.233    -278.104
  C     -191.855    -121.827    -277.380
  O     -192.554    -122.542    -276.671
  N     -190.018    -123.438    -278.161
  C     -188.988    -123.217    -278.956
  N     -188.955    -121.929    -279.414
  O     -183.447    -125.959    -281.808
  O     -184.329    -126.015    -279.407
  H     -187.655    -118.681    -280.917
  H     -182.637    -126.191    -281.319
  H     -192.976    -120.156    -277.105
  H     -188.245    -123.955    -279.226
  H     -188.526    -120.996    -281.199
  H     -187.748    -119.629    -278.873
  H     -192.487    -117.965    -277.792
  H     -186.220    -121.360    -278.175
  H     -191.399    -117.744    -279.115
  H     -185.168    -121.415    -281.055
  H     -183.995    -122.743    -279.240
  H     -185.481    -123.718    -279.096
  P     -184.121    -119.980    -277.533
  C     -181.735    -119.270    -278.285
  O     -182.582    -120.315    -277.830
  O     -184.657    -121.314    -276.829
  O     -184.368    -118.767    -276.702
  H     -184.490    -121.277    -275.870
  H     -180.747    -119.652    -278.436
  H     -181.708    -118.489    -277.554
  H     -182.112    -118.881    -279.208

 6  7  8  9  10  11  12  13  14  15  26  29  33  34 0
 6-311+G(2d,p)
 ****
 36  38  39  40  41 0
 6-311+G(2d,p)
 ****
 1  2  3  4  5  16  17  18  19  20  21  22  23  24  25 0
 3-21G
 ****
 27  28  30  31  32  35  37  42  43  44  45  46  47 0
 3-21G
 ****
 48  49 0
 3-21G
 ****


