%nproc=1
%NoSave
%Mem=1900MB
#P OB98/GEN NMR

erre ene a

0 1
  C     -267.243     -73.079      -7.935
  O     -266.713     -74.122      -7.134
  P     -267.092     -75.627      -7.554
  C     -269.409     -75.758      -6.354
  O     -268.693     -75.696      -7.578
  C     -270.569     -76.746      -6.486
  O     -271.467     -76.328      -7.531
  C     -270.144     -78.168      -6.832
  O     -269.721     -78.855      -5.669
  C     -271.421     -78.726      -7.449
  O     -272.348     -79.139      -6.426
  C     -271.959     -77.510      -8.221
  N     -272.866     -79.402     -12.821
  C     -273.350     -79.795     -11.586
  N     -274.239     -80.811     -11.588
  N     -272.997     -79.240     -10.457
  C     -272.091     -78.246     -10.609
  C     -271.527     -77.776     -11.773
  C     -271.966     -78.364     -13.018
  O     -271.642     -77.987     -14.141
  N     -270.630     -76.771     -11.525
  C     -270.676     -76.613     -10.218
  N     -271.563     -77.468      -9.615
  O     -266.682     -76.477      -6.264
  O     -266.437     -76.122      -8.804
  H     -272.507     -78.392      -5.822
  H     -265.807     -76.892      -6.388
  H     -273.187     -79.855     -13.656
  H     -270.106     -75.882      -9.667
  H     -273.056     -77.463      -8.201
  H     -271.228     -79.603      -8.071
  H     -274.538     -81.303     -12.413
  H     -269.346     -78.154      -7.585
  H     -274.601     -81.116     -10.689
  H     -271.129     -76.733      -5.541
  H     -269.804     -74.766      -6.119
  H     -268.728     -76.065      -5.554
  P     -268.817     -80.165      -5.872
  C     -271.018     -81.304      -6.650
  O     -269.622     -81.154      -6.838
  O     -268.884     -80.883      -4.443
  O     -267.404     -79.884      -6.273
  H     -268.026     -81.302      -4.247
  H     -271.477     -81.534      -7.613
  H     -271.470     -80.392      -6.249
  H     -271.198     -82.129      -5.960
  H     -266.918     -72.134      -7.551
  H     -268.312     -73.123      -7.916
  H     -266.899     -73.193      -8.942

 3  4  5  6  7  8  9  10  11  12  23  26  30  31 0
 6-311+G(2d,p)
 ****
 33  35  36  37  38 0
 6-311+G(2d,p)
 ****
 1  2  13  14  15  16  17  18  19  20  21  22  24  25 0
 3-21G
 ****
 27  28  29  32  34  39  40  41  42  43  44  45  46  47  48  49 0
 3-21G
 ****


