%nproc=1
%NoSave
%Mem=1900MB
#P OB98/GEN NMR

erre ene a

0 1
  C       32.894      -5.080     -82.340
  O       33.820      -5.102     -81.250
  P       33.610      -4.020     -80.081
  C       36.179      -3.754     -79.674
  O       34.955      -3.144     -80.047
  C       37.370      -2.880     -80.082
  O       37.402      -2.739     -81.534
  C       37.360      -1.472     -79.476
  O       38.724      -1.134     -79.186
  C       36.836      -0.614     -80.613
  O       37.202       0.750     -80.464
  C       37.465      -1.325     -81.816
  N       36.804      -0.999     -83.076
  C       37.547      -0.292     -84.013
  O       38.682       0.124     -83.789
  N       36.923      -0.036     -85.204
  C       35.628      -0.344     -85.510
  O       35.117      -0.091     -86.594
  C       34.856      -0.990     -84.438
  C       35.471      -1.281     -83.288
  O       33.701      -4.941     -78.779
  O       32.343      -3.245     -80.226
  H       34.352      -5.658     -78.856
  H       36.864       1.257     -81.231
  H       37.456       0.448     -85.910
  H       33.810      -1.196     -84.622
  H       34.926      -1.736     -82.472
  H       38.527      -1.059     -81.905
  H       35.744      -0.678     -80.656
  H       36.759      -1.405     -78.565
  H       38.289      -3.404     -79.789
  H       36.272      -4.728     -80.163
  H       36.175      -3.938     -78.594
  P       39.151      -0.952     -77.644
  C       38.710       1.626     -77.748
  O       38.454       0.390     -77.119
  O       40.683      -0.513     -77.829
  O       38.997      -2.171     -76.797
  H       40.802       0.178     -78.501
  H       37.973       2.355     -77.403
  H       38.631       1.541     -78.834
  H       39.708       1.980     -77.478
  H       33.149      -5.847     -83.041
  H       32.936      -4.127     -82.824
  H       31.904      -5.249     -81.971

 3  4  5  6  7  8  9  10  11  12  13  24  28  29  30  31  32 0
 6-311+G(2d,p)
 ****
 33  34 0
 6-311+G(2d,p)
 ****
 1  2  14  15  16  17  18  19  20  21  22  23  25  26  27 0
 3-21G
 ****
 35  36  37  38  39  40  41  42  43  44  45 0
 3-21G
 ****


