%nproc=1
%NoSave
%Mem=1900MB
#P OB98/GEN NMR

erre ene a

0 1
  C     -242.517     264.868    -143.934
  O     -241.355     265.183    -144.671
  H     -243.192     264.293    -144.574
  H     -243.025     265.788    -143.632
  H     -242.278     264.269    -143.052
  P     -240.081     265.766    -143.895
  C     -238.190     264.072    -144.336
  O     -239.205     264.500    -143.441
  C     -238.782     263.210    -145.457
  O     -239.643     264.043    -146.283
  C     -237.725     262.582    -146.383
  O     -238.258     261.339    -146.852
  C     -237.669     263.590    -147.513
  O     -237.069     263.043    -148.666
  C     -239.147     263.971    -147.634
  N     -239.346     265.222    -148.364
  C     -240.198     265.170    -149.459
  O     -240.746     264.136    -149.841
  N     -240.374     266.343    -150.139
  C     -239.739     267.523    -149.873
  O     -239.909     268.535    -150.537
  C     -238.814     267.505    -148.729
  C     -238.666     266.374    -148.035
  O     -240.377     266.742    -142.805
  O     -239.180     266.417    -145.049
  H     -236.838     263.759    -149.297
  H     -238.673     267.169    -144.692
  H     -240.997     266.327    -150.931
  H     -238.290     268.421    -148.495
  H     -237.991     266.332    -147.185
  H     -239.709     263.182    -148.156
  H     -237.075     264.464    -147.220
  H     -236.765     262.430    -145.895
  H     -239.420     262.441    -145.010
  H     -237.462     263.485    -143.765
  H     -237.688     264.945    -144.764
  P     -237.949     259.947    -146.117
  C     -240.346     259.133    -145.638
  O     -239.135     259.635    -145.080
  O     -236.581     259.856    -145.525
  O     -238.148     258.834    -147.252
  H     -237.587     258.061    -147.057
  H     -241.056     258.964    -144.856
  H     -240.150     258.212    -146.146
  H     -240.742     259.846    -146.331

 6  7  8  9  10  11  12  13  14  15  16  26  31  32  33  34  35 0
 6-311+G(2d,p)
 ****
 36  37 0
 6-311+G(2d,p)
 ****
 1  2  3  4  5  17  18  19  20  21  22  23  24  25 0
 3-21G
 ****
 27  28  29  30  38  39  40  41  42  43  44  45 0
 3-21G
 ****


