%nproc=1
%NoSave
%Mem=1900MB
#P OB98/GEN NMR

erre ene a

0 1
  C      -14.779    -170.840     158.030
  O      -13.371    -170.751     158.124
  H      -15.181    -169.846     157.811
  H      -15.208    -171.190     158.973
  H      -15.065    -171.518     157.219
  P      -12.547    -172.067     158.518
  C      -13.394    -171.672     160.931
  O      -12.281    -171.977     160.096
  C      -12.924    -171.051     162.246
  O      -14.057    -170.632     163.033
  C      -12.125    -171.997     163.132
  O      -10.815    -172.164     162.631
  C      -12.227    -171.279     164.469
  O      -11.309    -170.176     164.531
  C      -13.689    -170.767     164.428
  N      -14.629    -171.642     165.128
  C      -14.287    -171.980     166.442
  O      -13.241    -171.565     166.941
  N      -15.136    -172.801     167.148
  C      -16.243    -173.207     166.611
  N      -17.041    -174.014     167.361
  C      -16.656    -172.843     165.240
  C      -15.806    -172.076     164.560
  O      -11.325    -172.350     157.700
  O      -13.623    -173.245     158.399
  H      -11.287    -169.891     165.468
  H      -13.578    -173.663     157.517
  H      -17.593    -173.197     164.834
  H      -16.035    -171.762     163.546
  H      -13.760    -169.768     164.873
  H      -11.998    -171.932     165.310
  H      -12.640    -172.961     163.221
  H      -12.339    -170.151     162.004
  H      -16.725    -174.220     168.304
  H      -13.917    -172.614     161.127
  H      -17.991    -174.253     167.111
  H      -14.087    -170.994     160.417
  P      -10.062    -173.581     162.705
  C      -10.374    -173.819     165.249
  O       -9.444    -173.667     164.184
  O       -9.093    -173.845     161.602
  O      -11.259    -174.641     162.771
  H      -11.659    -174.769     161.872
  H       -9.847    -173.864     166.179
  H      -10.931    -174.722     165.110
  H      -11.044    -172.985     165.259

 6  7  8  9  10  11  12  13  14  15  16  26  30  31  32  33  35 0
 6-311+G(2d,p)
 ****
 37  38 0
 6-311+G(2d,p)
 ****
 1  2  3  4  5  17  18  19  20  21  22  23  24  25 0
 3-21G
 ****
 27  28  29  34  36  39  40  41  42  43  44  45  46 0
 3-21G
 ****


