%nproc=1
%NoSave
%Mem=1900MB
#P OB98/GEN NMR

erre ene a

0 1
  C       79.590     247.184     -25.067
  O       78.485     247.779     -25.715
  H       79.280     246.871     -24.065
  H       80.407     247.903     -24.971
  H       79.934     246.302     -25.616
  P       78.630     248.207     -27.252
  C       77.571     245.952     -27.914
  O       78.654     246.853     -28.111
  C       77.153     245.343     -29.248
  O       76.059     244.420     -29.057
  C       76.660     246.365     -30.266
  O       77.742     247.079     -30.829
  C       75.909     245.458     -31.229
  O       76.815     244.786     -32.117
  C       75.254     244.449     -30.258
  N       73.859     244.775     -29.953
  C       72.957     244.649     -31.002
  O       73.281     244.291     -32.131
  N       71.662     244.997     -30.717
  C       71.219     245.532     -29.542
  O       70.107     246.031     -29.404
  C       72.201     245.569     -28.449
  C       73.461     245.210     -28.704
  O       79.728     249.170     -27.557
  O       77.194     248.827     -27.604
  H       77.249     249.801     -27.587
  H       77.280     245.484     -32.618
  H       71.007     244.954     -31.484
  H       71.872     245.927     -27.481
  H       74.208     245.259     -27.920
  H       75.281     243.436     -30.682
  H       75.199     246.008     -31.851
  H       75.944     247.050     -29.796
  H       78.005     244.777     -29.648
  H       76.729     246.510     -27.487
  H       77.877     245.174     -27.207
  P       77.513     248.135     -32.008
  C       77.377     250.171     -30.455
  O       76.691     249.376     -31.410
  O       76.949     247.568     -33.268
  O       78.966     248.760     -32.264
  H       79.184     248.682     -33.214
  H       76.738     250.964     -30.126
  H       78.258     250.584     -30.901
  H       77.652     249.564     -29.618

 6  7  8  9  10  11  12  13  14  15  16  27  31  32  33  34  35 0
 6-311+G(2d,p)
 ****
 36  37 0
 6-311+G(2d,p)
 ****
 1  2  3  4  5  17  18  19  20  21  22  23  24  25 0
 3-21G
 ****
 26  28  29  30  38  39  40  41  42  43  44  45 0
 3-21G
 ****


