%nproc=1
%NoSave
%Mem=1900MB
#P OB98/GEN NMR

erre ene a

0 1
  C       30.245    -158.896     -68.276
  O       31.424    -158.128     -68.010
  P       32.825    -158.717     -68.521
  C       33.859    -159.026     -66.160
  O       33.951    -158.390     -67.425
  C       34.752    -158.335     -65.119
  O       36.006    -159.052     -64.956
  C       35.112    -156.891     -65.483
  O       35.286    -156.150     -64.269
  C       36.464    -157.047     -66.153
  O       37.181    -155.815     -66.191
  C       37.077    -158.142     -65.282
  N       42.072    -158.258     -65.965
  C       41.292    -157.377     -65.241
  N       41.946    -156.403     -64.573
  N       39.987    -157.446     -65.177
  C       39.477    -158.494     -65.868
  C       40.142    -159.429     -66.628
  C       41.583    -159.325     -66.709
  O       42.322    -160.068     -67.346
  N       39.270    -160.323     -67.197
  C       38.082    -159.923     -66.786
  N       38.157    -158.841     -65.951
  O       33.198    -157.746     -69.740
  O       32.756    -160.141     -68.966
  H       37.138    -155.425     -65.291
  H       33.092    -158.221     -70.583
  H       43.072    -158.152     -65.988
  H       37.142    -160.377     -67.064
  H       37.486    -157.746     -64.344
  H       36.329    -157.397     -67.185
  H       42.951    -156.325     -64.537
  H       34.381    -156.380     -66.117
  H       41.401    -155.769     -64.000
  H       34.237    -158.354     -64.151
  H       34.147    -160.077     -66.244
  H       32.810    -159.033     -65.843
  P       34.014    -155.345     -63.720
  C       35.560    -153.317     -63.232
  O       34.589    -154.219     -62.738
  O       33.308    -156.384     -62.729
  O       33.082    -154.858     -64.780
  H       32.360    -156.181     -62.645
  H       35.084    -152.353     -63.432
  H       36.035    -153.685     -64.147
  H       36.331    -153.180     -62.468
  H       29.391    -158.386     -67.882
  H       30.333    -159.856     -67.813
  H       30.130    -159.019     -69.333

 3  4  5  6  7  8  9  10  11  12  23  26  30  31 0
 6-311+G(2d,p)
 ****
 33  35  36  37  38 0
 6-311+G(2d,p)
 ****
 1  2  13  14  15  16  17  18  19  20  21  22  24  25 0
 3-21G
 ****
 27  28  29  32  34  39  40  41  42  43  44  45  46  47  48  49 0
 3-21G
 ****


