%nproc=1
%NoSave
%Mem=1900MB
#P OB98/GEN NMR

erre ene a

0 1
  C      491.361     148.441    -333.433
  O      490.544     149.565    -333.684
  P      489.197     149.821    -332.850
  C      489.481     152.040    -331.581
  O      489.645     150.631    -331.536
  C      489.257     152.620    -330.189
  O      487.931     152.254    -329.713
  C      490.266     152.155    -329.128
  O      490.452     153.255    -328.233
  C      489.521     151.024    -328.440
  O      490.056     150.718    -327.158
  C      488.093     151.580    -328.445
  N      487.099     150.530    -328.248
  C      486.686     150.294    -326.935
  O      487.218     150.900    -326.002
  N      485.732     149.335    -326.700
  C      485.301     148.607    -327.684
  N      484.351     147.679    -327.395
  C      485.803     148.740    -329.067
  C      486.680     149.721    -329.280
  O      488.372     148.608    -332.590
  O      488.437     150.944    -333.702
  H      489.512     150.006    -326.758
  H      488.006     150.539    -334.497
  H      485.456     148.076    -329.843
  H      487.101     149.895    -330.256
  H      487.966     152.333    -327.658
  H      489.583     150.118    -329.051
  H      491.224     151.830    -329.546
  H      489.283     153.716    -330.260
  H      484.025     147.634    -326.440
  H      488.607     152.262    -332.196
  H      483.893     147.122    -328.097
  H      490.355     152.503    -332.059
  P      491.881     153.548    -327.559
  C      492.501     155.500    -329.085
  O      492.809     154.176    -328.690
  O      492.476     152.393    -326.819
  O      491.602     154.791    -326.581
  H      492.340     154.873    -325.945
  H      493.350     155.915    -329.637
  H      492.299     156.133    -328.216
  H      491.624     155.493    -329.740
  H      492.203     148.458    -334.093
  H      490.797     147.546    -333.597
  H      491.702     148.467    -332.419

 3  4  5  6  7  8  9  10  11  12  13  23  27  28  29  30  32 0
 6-311+G(2d,p)
 ****
 34  35 0
 6-311+G(2d,p)
 ****
 1  2  14  15  16  17  18  19  20  21  22  24  25  26 0
 3-21G
 ****
 31  33  36  37  38  39  40  41  42  43  44  45  46 0
 3-21G
 ****


