%nproc=1
%NoSave
%Mem=1900MB
#P OB98/GEN NMR

erre ene a

0 1
  C     -221.303     226.562     160.428
  O     -220.014     227.049     160.116
  H     -222.043     227.155     159.883
  H     -221.496     226.653     161.501
  H     -221.393     225.516     160.122
  P     -218.785     226.378     160.906
  C     -217.616     225.216     158.884
  O     -218.442     225.075     160.030
  C     -218.462     225.145     157.619
  O     -219.463     226.189     157.613
  C     -217.679     225.336     156.322
  O     -216.956     224.184     155.926
  C     -218.822     225.641     155.369
  O     -219.536     224.429     155.066
  C     -219.676     226.593     156.234
  N     -219.323     228.005     156.050
  C     -219.515     228.538     154.768
  O     -219.957     227.840     153.858
  N     -219.169     229.849     154.540
  C     -218.694     230.569     155.505
  N     -218.367     231.858     155.218
  C     -218.486     230.055     156.872
  C     -218.818     228.782     157.071
  O     -219.477     225.753     162.208
  O     -217.624     227.270     161.189
  H     -219.948     224.134     155.900
  H     -218.829     225.188     162.694
  H     -218.076     230.692     157.643
  H     -218.696     228.332     158.051
  H     -220.743     226.469     156.016
  H     -218.492     226.061     154.420
  H     -217.021     226.210     156.374
  H     -218.993     224.184     157.623
  H     -218.463     232.167     154.259
  H     -216.878     224.406     158.891
  H     -217.854     232.453     155.855
  H     -217.091     226.177     158.917
  P     -215.381     224.158     156.235
  C     -215.546     222.136     157.869
  O     -215.202     223.505     157.690
  O     -215.034     225.698     156.478
  O     -214.536     223.556     155.158
  H     -214.135     225.910     156.159
  H     -215.371     221.854     158.886
  H     -214.946     221.530     157.223
  H     -216.580     221.994     157.632

 6  7  8  9  10  11  12  13  14  15  16  26  30  31  32  33  35 0
 6-311+G(2d,p)
 ****
 37  38 0
 6-311+G(2d,p)
 ****
 1  2  3  4  5  17  18  19  20  21  22  23  24  25 0
 3-21G
 ****
 27  28  29  34  36  39  40  41  42  43  44  45  46 0
 3-21G
 ****


