%nproc=1
%NoSave
%Mem=1900MB
#P OB98/GEN NMR

erre ene a

0 1
  C     1301.637     113.604     730.800
  O     1300.249     113.668     730.518
  H     1301.848     114.257     731.650
  H     1302.201     113.949     729.936
  H     1301.932     112.587     731.051
  P     1299.652     112.568     729.521
  C     1299.206     114.214     727.561
  O     1299.938     113.085     728.024
  C     1300.038     115.010     726.550
  O     1299.193     116.022     725.957
  C     1301.256     115.720     727.170
  O     1302.345     115.655     726.239
  C     1300.800     117.163     727.299
  O     1301.893     118.077     727.303
  C     1299.864     117.289     726.095
  N     1298.811     122.065     724.870
  C     1299.818     121.249     724.418
  N     1300.689     121.734     723.523
  N     1299.968     119.998     724.828
  C     1299.016     119.604     725.708
  C     1297.968     120.343     726.226
  C     1297.829     121.703     725.784
  O     1296.974     122.500     726.154
  N     1297.230     119.596     727.097
  C     1297.821     118.425     727.141
  N     1298.910     118.374     726.283
  O     1298.070     112.750     729.677
  O     1300.065     111.164     729.800
  H     1302.418     117.886     726.495
  H     1297.682     111.944     730.074
  H     1298.744     123.016     724.530
  H     1297.519     117.573     727.729
  H     1300.410     117.516     725.174
  H     1300.245     117.281     728.250
  H     1300.603     122.671     723.139
  H     1301.558     115.287     728.125
  H     1301.422     121.135     723.157
  H     1300.349     114.331     725.737
  H     1298.960     114.852     728.426
  H     1298.284     113.879     727.095
  P     1303.212     114.308     726.257
  C     1305.025     115.062     727.945
  O     1303.943     114.194     727.678
  O     1304.429     114.624     725.251
  O     1302.484     113.068     725.835
  H     1304.287     114.132     724.406
  H     1305.405     114.866     728.926
  H     1304.691     116.077     727.888
  H     1305.798     114.900     727.224

 6  7  8  9  10  11  12  13  14  15  26  29  33  34 0
 6-311+G(2d,p)
 ****
 36  38  39  40  41 0
 6-311+G(2d,p)
 ****
 1  2  3  4  5  16  17  18  19  20  21  22  23  24  25 0
 3-21G
 ****
 27  28  30  31  32  35  37  42  43  44  45  46  47 0
 3-21G
 ****
 48  49 0
 3-21G
 ****


