%nproc=1
%NoSave
%Mem=1900MB
#P OB98/GEN NMR

erre ene a

0 1
  C     -136.302       9.369      96.621
  O     -136.624       7.993      96.667
  H     -136.939       9.902      97.331
  H     -136.481       9.772      95.621
  H     -135.257       9.527      96.902
  P     -135.822       6.995      95.705
  C     -137.825       5.570      94.920
  O     -136.647       5.620      95.712
  C     -138.228       4.120      94.674
  O     -137.233       3.450      93.877
  C     -138.389       3.297      95.951
  O     -139.655       3.540      96.541
  C     -138.249       1.891      95.391
  O     -139.472       1.507      94.733
  C     -137.126       2.081      94.357
  N     -133.104      -1.002      94.422
  C     -134.335      -1.163      93.817
  N     -134.536      -2.334      93.175
  N     -135.288      -0.269      93.858
  C     -134.968       0.818      94.596
  C     -133.790       1.084      95.254
  C     -132.722       0.112      95.156
  O     -131.610       0.224      95.662
  N     -133.859       2.262      95.953
  C     -135.064       2.726      95.685
  N     -135.783       1.879      94.877
  O     -134.361       6.824      95.995
  O     -136.081       7.575      94.238
  H     -139.344       0.592      94.421
  H     -135.375       8.192      93.973
  H     -132.418      -1.737      94.371
  H     -135.462       3.666      96.047
  H     -137.240       1.419      93.492
  H     -138.042       1.143      96.155
  H     -133.962      -3.148      93.355
  H     -137.569       3.473      96.654
  H     -135.449      -2.492      92.769
  H     -139.157       4.124      94.091
  H     -137.609       6.073      93.972
  H     -138.643       6.098      95.420
  P     -139.821       4.596      97.741
  C     -140.433       2.514      99.142
  O     -140.753       3.859      98.815
  O     -140.296       5.946      97.325
  O     -138.399       4.606      98.465
  H     -137.764       5.259      98.079
  H     -141.131       2.147      99.866
  H     -139.444       2.471      99.547
  H     -140.484       1.911      98.260

 6  7  8  9  10  11  12  13  14  15  26  29  33  34 0
 6-311+G(2d,p)
 ****
 36  38  39  40  41 0
 6-311+G(2d,p)
 ****
 1  2  3  4  5  16  17  18  19  20  21  22  23  24  25 0
 3-21G
 ****
 27  28  30  31  32  35  37  42  43  44  45  46  47 0
 3-21G
 ****
 48  49 0
 3-21G
 ****


