%nproc=1
%NoSave
%Mem=1900MB
#P OB98/GEN NMR

erre ene a

0 1
  C      172.795     269.454    -225.702
  O      173.697     268.411    -226.021
  P      173.226     266.893    -225.795
  C      175.382     266.461    -224.346
  O      174.546     266.053    -225.419
  C      176.634     265.576    -224.285
  O      176.226     264.177    -224.388
  C      177.660     265.847    -225.387
  O      178.962     265.644    -224.820
  C      177.359     264.757    -226.411
  O      178.456     264.490    -227.269
  C      176.978     263.603    -225.480
  N      176.188     262.558    -226.147
  C      176.816     261.785    -227.123
  O      177.991     261.948    -227.482
  N      176.035     260.822    -227.719
  C      174.705     260.611    -227.488
  O      174.050     259.750    -228.059
  C      174.087     261.487    -226.474
  C      174.839     262.392    -225.857
  O      172.898     266.445    -227.297
  O      172.096     266.748    -224.829
  H      173.496     266.839    -227.957
  H      178.749     265.336    -227.662
  H      176.479     260.230    -228.403
  H      173.021     261.355    -226.277
  H      174.408     263.055    -225.116
  H      177.880     263.153    -225.048
  H      176.501     265.067    -227.030
  H      177.584     266.861    -225.799
  H      177.088     265.706    -223.294
  H      174.828     266.366    -223.404
  H      175.646     267.517    -224.478
  P      179.834     266.949    -224.429
  C      181.828     266.489    -226.076
  O      181.370     266.604    -224.738
  O      179.771     266.864    -222.830
  O      179.306     268.239    -224.964
  H      179.970     265.982    -222.481
  H      182.918     266.589    -226.075
  H      181.402     267.259    -226.714
  H      181.563     265.497    -226.466
  H      173.255     270.398    -225.907
  H      172.539     269.400    -224.664
  H      171.909     269.353    -226.293

 3  4  5  6  7  8  9  10  11  12  13  24  28  29  30  31  32 0
 6-311+G(2d,p)
 ****
 33  34 0
 6-311+G(2d,p)
 ****
 1  2  14  15  16  17  18  19  20  21  22  23  25  26  27 0
 3-21G
 ****
 35  36  37  38  39  40  41  42  43  44  45 0
 3-21G
 ****


