%nproc=1
%NoSave
%Mem=1900MB
#P OB98/GEN NMR

erre ene a

0 1
  C       25.794    -177.424      23.332
  O       26.938    -178.187      23.015
  H       24.960    -178.110      23.516
  H       25.523    -176.765      22.503
  H       25.966    -176.835      24.238
  P       28.266    -177.431      22.513
  C       29.407    -176.937      24.763
  O       29.388    -177.786      23.620
  C       29.995    -177.648      25.983
  O       29.117    -178.734      26.381
  C       31.390    -178.244      25.742
  O       32.246    -177.904      26.837
  C       31.140    -179.746      25.711
  O       32.306    -180.496      26.046
  C       29.959    -179.868      26.679
  N       29.234    -181.129      26.543
  C       29.423    -182.075      27.562
  O       30.197    -181.833      28.491
  N       28.764    -183.273      27.483
  C       28.025    -183.539      26.447
  N       27.408    -184.752      26.429
  C       27.834    -182.592      25.327
  C       28.456    -181.418      25.444
  O       28.089    -175.973      22.247
  O       28.745    -178.264      21.234
  H       32.145    -181.439      25.813
  H       29.347    -177.704      20.686
  H       27.216    -182.861      24.484
  H       28.364    -180.656      24.671
  H       30.298    -179.776      27.722
  H       30.825    -180.044      24.702
  H       31.855    -177.898      24.818
  H       30.002    -176.941      26.823
  H       27.564    -185.371      27.213
  H       28.381    -176.604      24.969
  H       26.816    -185.065      25.670
  H       30.028    -176.061      24.528
  P       33.355    -176.776      26.546
  C       32.588    -174.392      27.224
  O       33.175    -175.613      27.646
  O       32.838    -176.104      25.189
  O       34.742    -177.316      26.408
  H       33.346    -176.447      24.429
  H       32.532    -173.718      28.053
  H       31.603    -174.580      26.850
  H       33.186    -173.957      26.451

 6  7  8  9  10  11  12  13  14  15  16  26  30  31  32  33  35 0
 6-311+G(2d,p)
 ****
 37  38 0
 6-311+G(2d,p)
 ****
 1  2  3  4  5  17  18  19  20  21  22  23  24  25 0
 3-21G
 ****
 27  28  29  34  36  39  40  41  42  43  44  45  46 0
 3-21G
 ****


