%nproc=1
%NoSave
%Mem=1900MB
#P OB98/GEN NMR

erre ene a

0 1
  C      820.728    -189.762    -453.949
  O      819.891    -190.407    -454.892
  H      820.808    -190.384    -453.060
  H      820.324    -188.789    -453.671
  H      821.733    -189.641    -454.372
  P      819.422    -189.579    -456.184
  C      816.965    -188.895    -455.735
  O      818.341    -188.513    -455.638
  C      816.598    -189.911    -454.658
  O      817.026    -189.436    -453.358
  C      815.091    -190.144    -454.517
  O      814.518    -190.822    -455.601
  C      814.985    -190.728    -453.105
  O      815.181    -192.143    -453.067
  C      816.157    -190.019    -452.375
  N      815.674    -189.034    -451.415
  C      816.249    -189.083    -450.155
  O      817.108    -189.894    -449.822
  N      815.782    -188.153    -449.248
  C      814.782    -187.256    -449.474
  O      814.381    -186.495    -448.611
  C      814.183    -187.284    -450.821
  C      814.644    -188.146    -451.722
  O      818.937    -190.400    -457.349
  O      820.689    -188.659    -456.524
  H      814.438    -192.553    -453.566
  H      820.627    -188.300    -457.449
  H      816.197    -188.162    -448.329
  H      813.382    -186.581    -451.027
  H      814.224    -188.196    -452.717
  H      816.754    -190.762    -451.822
  H      814.004    -190.521    -452.667
  H      814.613    -189.157    -454.474
  H      817.128    -190.861    -454.866
  H      816.822    -189.359    -456.728
  H      816.332    -188.008    -455.668
  P      812.954    -190.724    -455.973
  C      811.547    -192.812    -455.296
  O      812.123    -191.569    -454.886
  O      812.604    -190.852    -457.422
  O      812.624    -189.195    -455.538
  H      811.974    -188.851    -456.161
  H      811.029    -193.255    -454.471
  H      812.321    -193.472    -455.627
  H      810.859    -192.639    -456.097

 6  7  8  9  10  11  12  13  14  15  16  26  31  32  33  34  35 0
 6-311+G(2d,p)
 ****
 36  37 0
 6-311+G(2d,p)
 ****
 1  2  3  4  5  17  18  19  20  21  22  23  24  25 0
 3-21G
 ****
 27  28  29  30  38  39  40  41  42  43  44  45 0
 3-21G
 ****


