%nproc=1
%NoSave
%Mem=1900MB
#P OB98/GEN NMR

erre ene a

0 1
  C        9.716    -922.348     107.699
  O        8.967    -922.822     106.601
  P        8.273    -921.856     105.536
  C        6.394    -921.005     107.115
  O        6.714    -921.710     105.928
  C        5.062    -920.233     107.032
  O        5.195    -919.180     106.050
  C        3.957    -921.164     106.516
  O        3.272    -922.011     107.416
  C        3.063    -920.273     105.660
  O        1.905    -919.817     106.372
  C        3.968    -919.099     105.300
  N        2.289    -917.938     100.657
  C        1.753    -917.621     101.888
  N        0.497    -917.080     101.858
  N        2.357    -917.817     103.029
  C        3.545    -918.452     102.894
  C        4.194    -918.800     101.732
  C        3.530    -918.540     100.477
  O        3.945    -918.888      99.373
  N        5.356    -919.497     101.986
  C        5.389    -919.584     103.301
  N        4.294    -919.002     103.891
  O        8.634    -922.068     104.096
  O        8.866    -920.420     105.969
  H        1.312    -920.581     106.492
  H        8.979    -919.890     105.159
  H        1.737    -917.824      99.818
  H        6.168    -920.093     103.867
  H        3.495    -918.152     105.584
  H        2.691    -920.830     104.786
  H       -0.053    -917.038     101.019
  H        4.426    -921.858     105.809
  H        0.008    -916.992     102.739
  H        4.831    -919.738     107.972
  H        7.222    -920.319     107.328
  H        6.340    -921.708     107.959
  P        3.297    -923.616     107.424
  C        1.684    -923.965     105.476
  O        1.898    -924.141     106.859
  O        3.229    -924.001     108.973
  O        4.505    -924.223     106.790
  H        3.586    -924.907     109.103
  H        0.622    -924.074     105.254
  H        2.234    -924.726     104.908
  H        2.012    -922.972     105.155
  H       10.079    -923.178     108.268
  H        9.093    -921.737     108.318
  H       10.543    -921.770     107.344

 3  4  5  6  7  8  9  10  11  12  23  26  30  31 0
 6-311+G(2d,p)
 ****
 33  35  36  37  38 0
 6-311+G(2d,p)
 ****
 1  2  13  14  15  16  17  18  19  20  21  22  24  25 0
 3-21G
 ****
 27  28  29  32  34  39  40  41  42  43  44  45  46  47  48  49 0
 3-21G
 ****


