%nproc=1
%NoSave
%Mem=1900MB
#P OB98/GEN NMR

erre ene a

0 1
  C     1043.868    -340.474     756.529
  O     1043.663    -341.060     757.805
  P     1042.172    -340.979     758.436
  C     1041.941    -343.506     757.875
  O     1041.752    -342.466     758.843
  C     1042.426    -344.786     758.577
  O     1043.627    -344.562     759.311
  C     1041.433    -345.345     759.611
  O     1040.398    -346.097     758.997
  C     1042.341    -346.266     760.426
  O     1042.532    -347.511     759.732
  C     1043.647    -345.442     760.472
  N     1044.806    -345.707     765.396
  C     1044.961    -346.629     764.401
  N     1045.408    -347.870     764.767
  N     1044.665    -346.451     763.116
  C     1044.206    -345.185     762.906
  C     1044.049    -344.136     763.797
  C     1044.353    -344.401     765.183
  O     1044.201    -343.627     766.125
  N     1043.579    -343.020     763.168
  C     1043.479    -343.348     761.909
  N     1043.810    -344.679     761.704
  O     1041.253    -340.657     757.165
  O     1042.008    -339.943     759.506
  H     1043.196    -348.021     760.260
  H     1040.385    -340.325     757.462
  H     1045.040    -345.923     766.351
  H     1043.147    -342.692     761.132
  H     1044.510    -346.093     760.355
  H     1041.931    -346.480     761.415
  H     1045.562    -348.125     765.746
  H     1041.027    -344.556     760.255
  H     1045.449    -348.603     764.073
  H     1042.631    -345.544     757.808
  H     1042.707    -343.188     757.153
  H     1040.994    -343.701     757.371
  P     1039.088    -346.361     759.894
  C     1038.281    -343.890     759.504
  O     1038.000    -345.300     759.382
  O     1039.507    -345.831     761.350
  O     1038.641    -347.797     759.936
  H     1039.012    -346.269     762.046
  H     1037.588    -343.353     758.887
  H     1039.299    -343.671     759.169
  H     1038.184    -343.601     760.571
  H     1044.890    -340.601     756.238
  H     1043.637    -339.430     756.575
  H     1043.232    -340.949     755.812

 3  4  5  6  7  8  9  10  11  12  23  26  30  31 0
 6-311+G(2d,p)
 ****
 33  35  36  37  38 0
 6-311+G(2d,p)
 ****
 1  2  13  14  15  16  17  18  19  20  21  22  24  25 0
 3-21G
 ****
 27  28  29  32  34  39  40  41  42  43  44  45  46  47  48  49 0
 3-21G
 ****


