%nproc=1
%NoSave
%Mem=1900MB
#P OB98/GEN NMR

erre ene a

0 1
  C     -217.145     -71.814    -113.538
  O     -216.915     -72.002    -114.920
  P     -218.095     -71.858    -115.995
  C     -220.269     -73.065    -116.617
  O     -219.171     -73.013    -115.712
  C     -221.335     -74.057    -116.144
  O     -222.083     -73.463    -115.039
  C     -222.343     -74.467    -117.227
  O     -222.636     -75.849    -117.033
  C     -223.560     -73.608    -116.903
  O     -224.756     -74.152    -117.443
  C     -223.481     -73.570    -115.374
  N     -224.244     -72.465    -114.808
  C     -225.488     -72.777    -114.256
  O     -225.950     -73.913    -114.374
  N     -226.178     -71.787    -113.592
  C     -225.758     -70.561    -113.650
  N     -226.433     -69.630    -112.923
  C     -224.568     -70.159    -114.439
  C     -223.848     -71.151    -114.953
  O     -217.649     -71.757    -117.417
  O     -218.867     -70.522    -115.541
  H     -218.936     -69.921    -116.308
  H     -224.932     -75.013    -117.014
  H     -224.333     -69.115    -114.564
  H     -222.949     -70.960    -115.527
  H     -223.855     -74.508    -114.943
  H     -223.422     -72.599    -117.322
  H     -221.958     -74.312    -118.240
  H     -220.823     -74.947    -115.744
  H     -227.210     -69.949    -112.362
  H     -219.891     -73.393    -117.585
  H     -226.002     -68.744    -112.656
  H     -220.701     -72.068    -116.742
  P     -222.103     -76.905    -118.123
  C     -222.850     -77.596    -120.512
  O     -223.220     -77.056    -119.257
  O     -222.245     -78.297    -117.317
  O     -220.685     -76.733    -118.580
  H     -221.611     -78.947    -117.691
  H     -223.716     -77.559    -121.174
  H     -222.539     -78.649    -120.401
  H     -222.039     -77.016    -120.960
  H     -216.230     -71.956    -113.002
  H     -217.871     -72.522    -113.198
  H     -217.508     -70.822    -113.369

 3  4  5  6  7  8  9  10  11  12  13  24  27  28  29  30  32 0
 6-311+G(2d,p)
 ****
 34  35 0
 6-311+G(2d,p)
 ****
 1  2  14  15  16  17  18  19  20  21  22  23  25  26 0
 3-21G
 ****
 31  33  36  37  38  39  40  41  42  43  44  45  46 0
 3-21G
 ****


