%nproc=1
%NoSave
%Mem=1900MB
#P OB98/GEN NMR

erre ene a

0 1
  C     -330.734    -761.267     221.933
  O     -330.655    -761.437     220.533
  H     -331.771    -761.045     222.198
  H     -330.102    -760.430     222.245
  H     -330.425    -762.179     222.447
  P     -329.198    -761.753     219.936
  C     -326.977    -760.422     219.752
  O     -328.364    -760.381     220.048
  C     -326.638    -759.420     218.655
  O     -327.085    -758.098     219.017
  C     -325.149    -759.301     218.345
  O     -324.729    -760.331     217.461
  C     -325.082    -757.922     217.705
  O     -325.480    -757.958     216.317
  C     -326.102    -757.135     218.545
  N     -326.092    -752.799     221.133
  C     -326.858    -753.188     220.053
  N     -327.715    -752.273     219.558
  N     -326.787    -754.370     219.508
  C     -325.866    -755.178     220.085
  C     -325.057    -754.907     221.166
  C     -325.164    -753.605     221.782
  O     -324.563    -753.219     222.781
  N     -324.263    -755.981     221.471
  C     -324.563    -756.886     220.555
  N     -325.515    -756.436     219.685
  O     -329.459    -761.888     218.357
  O     -328.526    -762.962     220.486
  H     -326.433    -758.139     216.265
  H     -328.822    -762.518     217.983
  H     -326.206    -751.881     221.525
  H     -324.115    -757.865     220.480
  H     -326.634    -756.385     217.952
  H     -324.072    -757.513     217.735
  H     -327.581    -751.282     219.713
  H     -324.559    -759.313     219.270
  H     -328.267    -752.544     218.751
  H     -327.192    -759.719     217.754
  H     -326.713    -761.432     219.417
  H     -326.407    -760.198     220.659
  P     -323.146    -760.482     217.191
  C     -321.153    -758.811     217.270
  O     -322.557    -758.995     217.133
  O     -323.080    -760.968     215.667
  O     -322.440    -761.420     218.114
  H     -322.204    -761.344     215.480
  H     -320.922    -757.768     217.210
  H     -320.647    -759.334     216.486
  H     -320.834    -759.192     218.217

 6  7  8  9  10  11  12  13  14  15  26  29  33  34 0
 6-311+G(2d,p)
 ****
 36  38  39  40  41 0
 6-311+G(2d,p)
 ****
 1  2  3  4  5  16  17  18  19  20  21  22  23  24  25 0
 3-21G
 ****
 27  28  30  31  32  35  37  42  43  44  45  46  47 0
 3-21G
 ****
 48  49 0
 3-21G
 ****


