%nproc=1
%NoSave
%Mem=1900MB
#P OB98/GEN NMR

erre ene a

0 1
  C      455.276     416.974     499.444
  O      456.527     417.641     499.661
  P      456.781     419.170     499.231
  C      458.838     418.677     497.758
  O      458.336     419.366     498.895
  C      460.326     418.983     497.520
  O      460.501     420.379     497.203
  C      461.230     418.715     498.707
  O      461.466     417.328     498.869
  C      462.457     419.541     498.332
  O      463.306     418.816     497.423
  C      461.823     420.760     497.639
  N      461.779     421.933     498.505
  C      462.803     422.872     498.329
  O      463.712     422.670     497.524
  N      462.780     424.017     499.095
  C      461.863     424.166     500.003
  N      461.895     425.318     500.724
  C      460.826     423.156     500.279
  C      460.844     422.082     499.499
  O      456.232     420.165     500.201
  O      456.066     419.324     497.805
  H      464.106     419.362     497.294
  H      455.746     420.243     497.708
  H      460.102     423.310     501.063
  H      460.108     421.292     499.629
  H      462.383     421.017     496.731
  H      463.072     419.803     499.200
  H      460.777     419.131     499.618
  H      460.647     418.399     496.646
  H      462.615     425.994     500.507
  H      458.260     418.986     496.881
  H      461.225     425.534     501.452
  H      458.696     417.601     497.908
  P      460.332     416.392     499.497
  C      461.642     416.302     501.702
  O      460.999     415.553     500.686
  O      459.541     415.588     498.517
  O      459.387     417.423     500.284
  H      458.468     417.089     500.269
  H      461.691     415.690     502.610
  H      461.101     417.223     501.924
  H      462.661     416.539     501.381
  H      455.339     415.970     499.808
  H      455.056     416.961     498.397
  H      454.499     417.494     499.965

 3  4  5  6  7  8  9  10  11  12  13  23  27  28  29  30  32 0
 6-311+G(2d,p)
 ****
 34  35 0
 6-311+G(2d,p)
 ****
 1  2  14  15  16  17  18  19  20  21  22  24  25  26 0
 3-21G
 ****
 31  33  36  37  38  39  40  41  42  43  44  45  46 0
 3-21G
 ****


