%nproc=1
%NoSave
%Mem=1900MB
#P OB98/GEN NMR

erre ene a

0 1
  C      659.492    -718.922    -819.652
  O      660.314    -718.216    -818.721
  P      661.696    -717.609    -819.279
  C      660.470    -715.440    -820.072
  O      661.283    -716.546    -820.412
  C      660.441    -714.417    -821.216
  O      661.785    -714.213    -821.732
  C      659.536    -714.807    -822.389
  O      658.928    -713.601    -822.867
  C      660.530    -715.345    -823.411
  O      660.003    -715.300    -824.732
  C      661.720    -714.411    -823.161
  N      662.975    -714.948    -823.689
  C      663.560    -714.257    -824.736
  O      663.037    -713.282    -825.273
  N      664.753    -714.749    -825.184
  C      665.367    -715.893    -824.744
  O      666.439    -716.296    -825.178
  C      664.644    -716.644    -823.712
  C      663.492    -716.151    -823.239
  O      662.287    -718.851    -820.085
  O      662.574    -717.075    -818.192
  H      661.604    -719.374    -820.545
  H      659.266    -715.946    -824.800
  H      665.216    -714.242    -825.925
  H      665.054    -717.588    -823.377
  H      662.918    -716.689    -822.495
  H      661.544    -713.430    -823.615
  H      660.786    -716.379    -823.174
  H      658.769    -715.531    -822.112
  H      660.102    -713.456    -820.796
  H      660.866    -714.950    -819.173
  H      659.464    -715.796    -819.826
  P      657.630    -713.044    -822.090
  C      658.491    -710.577    -821.930
  O      658.102    -711.757    -821.260
  O      657.486    -714.165    -820.955
  O      656.400    -712.909    -822.926
  H      658.328    -714.377    -820.510
  H      658.540    -709.760    -821.201
  H      657.781    -710.308    -822.707
  H      659.488    -710.712    -822.364
  H      658.610    -719.271    -819.156
  H      660.034    -719.757    -820.045
  H      659.216    -718.267    -820.452

 3  4  5  6  7  8  9  10  11  12  13  24  28  29  30  31  32 0
 6-311+G(2d,p)
 ****
 33  34 0
 6-311+G(2d,p)
 ****
 1  2  14  15  16  17  18  19  20  21  22  23  25  26  27 0
 3-21G
 ****
 35  36  37  38  39  40  41  42  43  44  45 0
 3-21G
 ****


