%nproc=1
%NoSave
%Mem=1900MB
#P OB98/GEN NMR

erre ene a

0 1
  C     -359.097     439.898     518.298
  O     -359.534     440.375     517.014
  P     -359.581     441.928     516.618
  C     -361.979     441.622     515.671
  O     -360.665     442.111     515.442
  C     -362.762     441.535     514.357
  O     -362.927     442.836     513.769
  C     -362.087     440.708     513.253
  O     -362.149     439.314     513.506
  C     -362.881     441.156     512.027
  O     -364.105     440.402     511.888
  C     -363.207     442.625     512.365
  N     -362.473     443.573     511.539
  C     -363.198     444.239     510.558
  O     -364.383     443.964     510.363
  N     -362.567     445.202     509.803
  C     -361.285     445.397     509.943
  N     -360.711     446.372     509.186
  C     -360.452     444.608     510.877
  C     -361.105     443.730     511.634
  O     -358.239     442.518     516.311
  O     -360.261     442.663     517.872
  H     -359.964     443.595     517.905
  H     -363.843     439.470     511.735
  H     -359.380     444.772     510.934
  H     -360.562     443.123     512.360
  H     -364.280     442.816     512.249
  H     -362.311     441.026     511.103
  H     -361.047     441.027     513.154
  H     -363.757     441.119     514.582
  H     -361.321     446.894     508.561
  H     -362.496     442.328     516.339
  H     -359.744     446.613     509.240
  H     -361.919     440.647     516.164
  P     -360.892     438.668     514.277
  C     -360.272     437.106     512.298
  O     -360.648     437.207     513.660
  O     -361.474     438.367     515.749
  O     -359.685     439.543     514.343
  H     -360.781     438.562     516.417
  H     -359.683     436.183     512.171
  H     -359.671     437.957     511.983
  H     -361.170     437.042     511.689
  H     -359.156     438.830     518.320
  H     -359.725     440.306     519.063
  H     -358.085     440.203     518.467

 3  4  5  6  7  8  9  10  11  12  13  24  27  28  29  30  32 0
 6-311+G(2d,p)
 ****
 34  35 0
 6-311+G(2d,p)
 ****
 1  2  14  15  16  17  18  19  20  21  22  23  25  26 0
 3-21G
 ****
 31  33  36  37  38  39  40  41  42  43  44  45  46 0
 3-21G
 ****


