%nproc=1
%NoSave
%Mem=1900MB
#P OB98/GEN NMR

erre ene a

0 1
  C       21.852      26.039      23.584
  O       22.464      27.309      23.489
  H       21.363      25.924      24.556
  H       21.098      25.953      22.797
  H       22.598      25.252      23.446
  P       23.532      27.671      24.630
  C       25.907      28.708      24.664
  O       24.849      28.189      23.872
  C       27.170      28.851      23.825
  O       27.682      27.552      23.467
  C       26.978      29.586      22.504
  O       26.929      30.995      22.681
  C       28.235      29.159      21.759
  O       29.350      29.959      22.192
  C       28.418      27.706      22.225
  N       29.718      24.570      18.373
  C       30.446      25.432      19.119
  N       30.034      26.239      20.116
  C       28.717      26.091      20.337
  C       27.848      25.254      19.659
  C       28.394      24.471      18.628
  N       27.640      23.609      17.863
  N       26.572      25.359      20.169
  C       26.667      26.244      21.140
  N       27.944      26.721      21.275
  O       23.973      26.238      25.198
  O       23.028      28.558      25.718
  H       29.523      29.718      23.122
  H       24.133      26.314      26.157
  H       31.507      25.475      18.885
  H       25.845      26.564      21.769
  H       29.468      27.486      22.449
  H       28.152      29.272      20.676
  H       26.097      29.217      21.968
  H       27.929      29.352      24.441
  H       26.106      28.026      25.498
  H       28.113      22.938      17.282
  H       26.648      23.536      18.067
  H       25.603      29.680      25.065
  P       26.349      31.874      21.468
  C       24.775      33.930      21.315
  O       25.547      33.081      22.156
  O       25.185      30.949      20.877
  O       27.344      32.250      20.425
  H       25.031      31.169      19.937
  H       24.300      34.683      21.908
  H       24.030      33.351      20.811
  H       25.414      34.394      20.594

 6  7  8  9  10  11  12  13  14  15  25  28  32  33  34  35 0
 6-311+G(2d,p)
 ****
 36  39  40 0
 6-311+G(2d,p)
 ****
 1  2  3  4  5  16  17  18  19  20  21  22  23  24 0
 3-21G
 ****
 26  27  29  30  31  37  38  41  42  43  44  45  46  47  48 0
 3-21G
 ****


