%nproc=1
%NoSave
%Mem=1900MB
#P OB98/GEN NMR

erre ene a

0 1
  C     -154.251     -73.731     -42.848
  O     -154.583     -73.389     -41.518
  H     -155.154     -73.661     -43.461
  H     -153.872     -74.755     -42.902
  H     -153.507     -73.034     -43.244
  P     -153.447     -73.527     -40.391
  C     -154.250     -75.938     -39.875
  O     -153.176     -75.110     -40.297
  C     -153.777     -76.905     -38.793
  O     -152.875     -77.892     -39.337
  C     -153.001     -76.258     -37.648
  O     -153.821     -75.529     -36.751
  C     -152.395     -77.498     -37.008
  O     -153.401     -78.188     -36.247
  C     -151.992     -78.317     -38.260
  N     -150.594     -78.127     -38.641
  C     -149.670     -79.042     -38.118
  O     -150.044     -79.952     -37.378
  N     -148.337     -78.882     -38.416
  C     -147.957     -77.886     -39.154
  N     -146.620     -77.747     -39.379
  C     -148.895     -76.909     -39.739
  C     -150.182     -77.082     -39.442
  O     -153.722     -72.847     -39.088
  O     -152.111     -73.014     -41.107
  H     -153.670     -77.592     -35.524
  H     -151.379     -73.068     -40.447
  H     -148.524     -76.091     -40.341
  H     -150.932     -76.394     -39.820
  H     -152.172     -79.386     -38.101
  H     -151.567     -77.272     -36.328
  H     -152.188     -75.632     -38.034
  H     -154.659     -77.448     -38.425
  H     -146.004     -78.410     -38.929
  H     -154.627     -76.479     -40.748
  H     -146.227     -76.866     -39.698
  H     -155.057     -75.326     -39.461
  P     -153.249     -74.145     -36.167
  C     -152.339     -75.446     -34.102
  O     -152.070     -74.528     -35.148
  O     -154.432     -73.647     -35.211
  O     -152.867     -73.120     -37.188
  H     -155.031     -73.036     -35.680
  H     -151.454     -75.591     -33.518
  H     -152.648     -76.381     -34.519
  H     -153.118     -75.058     -33.479

 6  7  8  9  10  11  12  13  14  15  16  26  30  31  32  33  35 0
 6-311+G(2d,p)
 ****
 37  38 0
 6-311+G(2d,p)
 ****
 1  2  3  4  5  17  18  19  20  21  22  23  24  25 0
 3-21G
 ****
 27  28  29  34  36  39  40  41  42  43  44  45  46 0
 3-21G
 ****


