%nproc=1
%NoSave
%Mem=1900MB
#P OB98/GEN NMR

erre ene a

0 1
  C      482.235     111.791    -284.243
  O      482.349     112.911    -283.372
  P      482.946     112.856    -281.890
  C      485.566     112.808    -281.969
  O      484.376     113.575    -281.898
  C      486.694     113.350    -281.068
  O      487.561     112.252    -280.657
  C      487.575     114.329    -281.844
  O      487.180     115.685    -281.977
  C      488.966     114.140    -281.265
  O      489.256     115.069    -280.221
  C      488.921     112.714    -280.705
  N      493.592     111.449    -282.388
  C      493.193     112.556    -281.677
  N      494.148     113.479    -281.416
  N      491.966     112.759    -281.269
  C      491.099     111.801    -281.674
  C      491.371     110.666    -282.399
  C      492.744     110.422    -282.798
  O      493.147     109.452    -283.423
  N      490.227     109.942    -282.647
  C      489.263     110.649    -282.082
  N      489.745     111.788    -281.478
  O      482.855     111.530    -281.209
  O      482.008     113.884    -281.075
  H      488.543     115.014    -279.559
  H      481.941     113.540    -280.162
  H      494.552     111.330    -282.661
  H      488.220     110.385    -282.082
  H      489.301     112.680    -279.677
  H      489.731     114.290    -282.041
  H      495.078     113.443    -281.799
  H      487.634     113.954    -282.873
  H      493.814     114.392    -281.084
  H      486.285     113.770    -280.146
  H      485.882     112.797    -283.016
  H      485.356     111.763    -281.705
  P      486.821     116.439    -283.343
  C      484.301     116.007    -283.208
  O      485.326     116.988    -283.227
  O      486.676     115.252    -284.413
  O      487.833     117.442    -283.796
  H      486.716     115.609    -285.323
  H      483.346     116.488    -283.438
  H      484.236     115.553    -282.216
  H      484.491     115.224    -283.950
  H      481.804     112.103    -285.171
  H      481.610     111.050    -283.791
  H      483.206     111.378    -284.422

 3  4  5  6  7  8  9  10  11  12  23  26  30  31 0
 6-311+G(2d,p)
 ****
 33  35  36  37  38 0
 6-311+G(2d,p)
 ****
 1  2  13  14  15  16  17  18  19  20  21  22  24  25 0
 3-21G
 ****
 27  28  29  32  34  39  40  41  42  43  44  45  46  47  48  49 0
 3-21G
 ****


