%nproc=1
%NoSave
%Mem=1900MB
#P OB98/GEN NMR

erre ene a

0 1
  C     1161.430    -444.474    -654.874
  O     1160.193    -443.793    -654.761
  H     1162.031    -444.039    -655.684
  H     1161.980    -444.369    -653.935
  H     1161.268    -445.542    -655.063
  P     1159.229    -443.835    -656.034
  C     1157.572    -442.614    -654.437
  O     1158.092    -442.732    -655.763
  C     1156.375    -441.685    -654.431
  O     1156.805    -440.321    -654.759
  C     1155.299    -442.025    -655.458
  O     1154.439    -443.058    -654.988
  C     1154.558    -440.692    -655.548
  O     1153.716    -440.524    -654.401
  C     1155.719    -439.698    -655.522
  N     1155.933    -435.941    -658.992
  C     1155.340    -436.027    -657.782
  N     1155.311    -437.041    -656.915
  C     1156.014    -438.100    -657.424
  C     1156.660    -438.168    -658.639
  C     1156.600    -437.020    -659.455
  N     1157.194    -436.941    -660.705
  N     1157.225    -439.428    -658.831
  C     1156.956    -440.076    -657.711
  N     1156.219    -439.325    -656.839
  O     1158.439    -445.229    -655.874
  O     1159.896    -443.721    -657.373
  H     1153.102    -441.290    -654.395
  H     1158.076    -445.505    -656.738
  H     1154.797    -435.123    -657.457
  H     1157.255    -441.096    -657.496
  H     1155.467    -438.764    -654.996
  H     1153.921    -440.636    -656.444
  H     1155.726    -442.281    -656.434
  H     1155.954    -441.656    -653.420
  H     1158.358    -442.225    -653.772
  H     1156.930    -436.136    -661.279
  H     1157.567    -437.782    -661.108
  H     1157.274    -443.618    -654.082
  P     1154.000    -444.187    -656.048
  C     1153.899    -446.018    -654.181
  O     1153.188    -445.283    -655.203
  O     1155.381    -444.912    -656.400
  O     1153.309    -443.657    -657.261
  H     1155.352    -445.310    -657.300
  H     1153.231    -446.707    -653.707
  H     1154.283    -445.335    -653.452
  H     1154.709    -446.556    -654.627

 6  7  8  9  10  11  12  13  14  15  25  28  32  33  34  35 0
 6-311+G(2d,p)
 ****
 36  39  40 0
 6-311+G(2d,p)
 ****
 1  2  3  4  5  16  17  18  19  20  21  22  23  24 0
 3-21G
 ****
 26  27  29  30  31  37  38  41  42  43  44  45  46  47 0
 3-21G
 ****
 48 0
 3-21G
 ****


