%nproc=1
%NoSave
%Mem=1900MB
#P OB98/GEN NMR

erre ene a

0 1
  C     -517.404     255.352    -499.245
  O     -518.548     254.662    -499.710
  H     -516.626     254.621    -499.010
  H     -517.636     255.916    -498.339
  H     -517.026     256.026    -500.019
  P     -519.864     255.511    -500.053
  C     -520.904     255.261    -497.692
  O     -521.011     254.959    -499.075
  C     -521.976     254.520    -496.891
  O     -523.281     255.044    -497.220
  C     -522.041     253.024    -497.159
  O     -520.972     252.356    -496.525
  C     -523.425     252.705    -496.626
  O     -523.419     252.614    -495.192
  C     -524.223     253.949    -497.088
  N     -524.957     253.742    -498.338
  C     -526.233     253.183    -498.230
  O     -526.680     252.880    -497.116
  N     -526.957     252.962    -499.375
  C     -526.473     253.314    -500.529
  N     -527.247     253.076    -501.621
  C     -525.150     253.938    -500.688
  C     -524.443     254.112    -499.572
  O     -520.252     255.575    -501.500
  O     -519.547     256.962    -499.457
  H     -524.352     252.483    -494.932
  H     -519.177     257.542    -500.148
  H     -524.788     254.218    -501.667
  H     -523.457     254.563    -499.601
  H     -524.953     254.246    -496.321
  H     -523.809     251.752    -497.008
  H     -522.035     252.832    -498.242
  H     -521.802     254.723    -495.826
  H     -528.157     252.662    -501.460
  H     -521.023     256.338    -497.578
  H     -527.042     253.445    -502.538
  H     -519.905     254.986    -497.315
  P     -519.585     252.057    -497.284
  C     -519.803     249.570    -496.693
  O     -518.994     250.736    -496.598
  O     -518.644     253.218    -497.342
  O     -520.044     251.542    -498.718
  H     -520.334     252.302    -499.286
  H     -519.313     248.755    -496.203
  H     -519.958     249.326    -497.723
  H     -520.747     249.752    -496.224

 6  7  8  9  10  11  12  13  14  15  16  26  30  31  32  33  35 0
 6-311+G(2d,p)
 ****
 37  38 0
 6-311+G(2d,p)
 ****
 1  2  3  4  5  17  18  19  20  21  22  23  24  25 0
 3-21G
 ****
 27  28  29  34  36  39  40  41  42  43  44  45  46 0
 3-21G
 ****


