%nproc=1
%NoSave
%Mem=1900MB
#P OB98/GEN NMR

erre ene a

0 1
  C      895.786     231.267     291.606
  O      895.456     232.304     292.521
  P      896.195     232.302     293.945
  C      894.036     233.300     294.986
  O      895.447     233.412     294.827
  C      893.497     234.444     295.840
  O      894.022     234.351     297.187
  C      893.889     235.836     295.348
  O      893.041     236.287     294.301
  C      893.663     236.661     296.609
  O      892.256     236.935     296.764
  C      894.141     235.701     297.701
  N      897.296     238.953     300.088
  C      895.982     239.032     299.783
  N      895.215     238.133     299.133
  C      895.955     237.068     298.762
  C      897.305     236.858     298.973
  C      897.987     237.856     299.681
  N      899.325     237.762     300.018
  N      897.697     235.654     298.443
  C      896.607     235.125     297.930
  N      895.515     235.939     298.105
  O      897.613     232.982     293.611
  O      896.362     230.956     294.574
  H      892.170     237.542     297.530
  H      898.276     232.719     294.274
  H      895.478     239.939     300.104
  H      896.547     234.167     297.435
  H      893.521     235.757     298.607
  H      894.174     237.624     296.583
  H      894.949     235.872     295.066
  H      892.412     234.348     295.894
  H      893.808     232.350     295.484
  H      899.694     238.424     300.685
  H      899.784     236.861     299.893
  H      893.573     233.304     293.996
  P      893.678     236.310     292.825
  C      893.306     238.738     291.943
  O      892.823     237.407     292.020
  O      893.193     234.920     292.207
  O      895.153     236.478     292.797
  H      893.809     234.636     291.498
  H      892.791     239.251     291.122
  H      894.385     238.753     291.739
  H      893.104     239.268     292.885
  H      895.222     231.393     290.706
  H      895.553     230.318     292.043
  H      896.831     231.309     291.381

 3  4  5  6  7  8  9  10  11  12  22  25  29  30  31  32 0
 6-311+G(2d,p)
 ****
 33  36  37 0
 6-311+G(2d,p)
 ****
 1  2  13  14  15  16  17  18  19  20  21  23  24  26 0
 3-21G
 ****
 27  28  34  35  38  39  40  41  42  43  44  45  46  47  48 0
 3-21G
 ****


