%nproc=1
%NoSave
%Mem=1900MB
#P OB98/GEN NMR

erre ene a

0 1
  C     -396.659    -536.359     221.966
  O     -396.732    -535.318     222.923
  H     -397.184    -536.035     221.060
  H     -397.139    -537.258     222.355
  H     -395.617    -536.566     221.710
  P     -396.019    -535.585     224.332
  C     -398.019    -536.055     225.918
  O     -396.973    -536.610     225.135
  C     -399.045    -537.133     226.276
  O     -398.372    -538.206     227.002
  C     -400.193    -536.642     227.161
  O     -401.407    -537.288     226.760
  C     -399.814    -537.131     228.548
  O     -400.926    -537.242     229.412
  C     -399.141    -538.455     228.190
  N     -398.408    -542.336     231.325
  C     -399.316    -542.173     230.294
  N     -400.167    -543.188     230.065
  N     -399.389    -541.096     229.551
  C     -398.460    -540.156     229.877
  C     -397.515    -540.196     230.879
  C     -397.455    -541.384     231.710
  O     -396.688    -541.586     232.636
  N     -396.780    -539.029     230.905
  C     -397.279    -538.286     229.929
  N     -398.310    -538.940     229.282
  O     -396.225    -534.203     225.120
  O     -394.585    -535.992     224.265
  H     -401.289    -536.343     229.557
  H     -395.490    -534.045     225.744
  H     -398.408    -543.178     231.863
  H     -396.954    -537.299     229.651
  H     -399.862    -539.252     227.979
  H     -399.089    -536.441     229.000
  H     -400.154    -544.071     230.570
  H     -400.334    -535.550     227.119
  H     -400.843    -543.091     229.305
  H     -399.418    -537.578     225.343
  H     -398.510    -535.262     225.351
  H     -397.607    -535.631     226.844
  P     -402.337    -536.530     225.699
  C     -403.852    -535.159     227.309
  O     -402.822    -535.132     226.344
  O     -403.681    -537.422     225.697
  O     -401.754    -536.438     224.329
  H     -403.745    -537.925     224.871
  H     -404.059    -534.162     227.638
  H     -403.543    -535.753     228.144
  H     -404.735    -535.582     226.877

 6  7  8  9  10  11  12  13  14  15  26  29  33  34 0
 6-311+G(2d,p)
 ****
 36  38  39  40  41 0
 6-311+G(2d,p)
 ****
 1  2  3  4  5  16  17  18  19  20  21  22  23  24  25 0
 3-21G
 ****
 27  28  30  31  32  35  37  42  43  44  45  46  47 0
 3-21G
 ****
 48  49 0
 3-21G
 ****


