%nproc=1
%NoSave
%Mem=1900MB
#P OB98/GEN NMR

erre ene a

0 1
  C     -363.597     160.819     -64.598
  O     -362.488     160.548     -65.473
  P     -362.457     161.232     -66.933
  C     -363.140     159.125     -68.319
  O     -363.443     160.455     -67.931
  C     -363.768     158.780     -69.676
  O     -365.205     158.595     -69.544
  C     -363.550     159.853     -70.763
  O     -363.453     159.172     -72.021
  C     -364.852     160.644     -70.697
  O     -365.105     161.403     -71.874
  C     -365.845     159.502     -70.459
  N     -367.141     159.937     -69.933
  C     -368.227     159.969     -70.807
  O     -368.159     159.704     -72.001
  N     -369.428     160.336     -70.254
  C     -369.638     160.724     -68.958
  O     -370.729     161.077     -68.534
  C     -368.452     160.710     -68.092
  C     -367.277     160.312     -68.610
  O     -361.012     160.783     -67.471
  O     -362.573     162.719     -66.947
  H     -365.207     160.770     -72.609
  H     -360.555     161.552     -67.874
  H     -370.223     160.349     -70.865
  H     -368.577     160.995     -67.053
  H     -366.391     160.289     -67.981
  H     -366.003     158.952     -71.397
  H     -364.810     161.335     -69.851
  H     -362.663     160.465     -70.588
  H     -363.351     157.824     -70.007
  H     -363.537     158.436     -67.561
  H     -362.054     159.004     -68.358
  P     -362.014     159.115     -72.749
  C     -363.175     159.981     -74.928
  O     -362.097     160.081     -74.031
  O     -362.086     157.643     -73.391
  O     -360.844     159.308     -71.830
  H     -362.933     157.462     -73.824
  H     -364.124     159.837     -74.407
  H     -363.008     159.146     -75.614
  H     -363.233     160.910     -75.508
  H     -363.462     160.291     -63.677
  H     -364.505     160.498     -65.063
  H     -363.649     161.870     -64.403

 3  4  5  6  7  8  9  10  11  12  13  23  28  29  30  31  32 0
 6-311+G(2d,p)
 ****
 33  34 0
 6-311+G(2d,p)
 ****
 1  2  14  15  16  17  18  19  20  21  22  24  25  26 0
 3-21G
 ****
 27  35  36  37  38  39  40  41  42  43  44  45 0
 3-21G
 ****


