%nproc=1
%NoSave
%Mem=1900MB
#P OB98/GEN NMR

erre ene a

0 1
  C      186.847      44.170    1048.289
  O      188.093      44.673    1047.838
  H      186.918      43.987    1049.372
  H      186.626      43.215    1047.790
  H      186.043      44.883    1048.095
  P      188.152      45.177    1046.312
  C      187.922      42.787    1045.242
  O      188.726      43.952    1045.436
  C      187.957      42.379    1043.771
  O      187.251      43.355    1042.947
  C      189.355      42.336    1043.180
  O      190.114      41.236    1043.650
  C      189.009      42.251    1041.691
  O      188.638      40.913    1041.317
  C      187.791      43.216    1041.596
  N      188.146      44.512    1041.031
  C      187.563      44.802    1039.776
  O      186.819      43.995    1039.243
  N      187.898      45.993    1039.173
  C      188.696      46.811    1039.775
  N      188.994      47.990    1039.110
  C      189.296      46.566    1041.091
  C      188.976      45.406    1041.662
  O      189.389      46.198    1046.337
  O      186.881      45.754    1045.783
  H      187.714      40.794    1041.618
  H      190.201      45.814    1046.700
  H      189.950      47.305    1041.557
  H      189.380      45.131    1042.622
  H      187.000      42.756    1040.990
  H      189.857      42.528    1041.057
  H      189.869      43.280    1043.341
  H      187.443      41.415    1043.677
  H      188.560      48.120    1038.198
  H      186.895      42.946    1045.588
  H      189.612      48.696    1039.466
  H      188.365      41.979    1045.863
  P      191.624      41.455    1044.153
  C      192.540      40.611    1041.888
  O      192.530      40.441    1043.309
  O      191.811      41.386    1045.650
  O      192.030      42.872    1043.510
  H      191.988      42.917    1042.533
  H      193.179      39.876    1041.445
  H      192.902      41.589    1041.648
  H      191.547      40.495    1041.508

 6  7  8  9  10  11  12  13  14  15  16  26  30  31  32  33  35 0
 6-311+G(2d,p)
 ****
 37  38 0
 6-311+G(2d,p)
 ****
 1  2  3  4  5  17  18  19  20  21  22  23  24  25 0
 3-21G
 ****
 27  28  29  34  36  39  40  41  42  43  44  45  46 0
 3-21G
 ****


