%nproc=1
%NoSave
%Mem=1900MB
#P OB98/GEN NMR

erre ene a

0 1
  C      -96.105    -227.986    -893.810
  O      -96.821    -227.009    -893.080
  H      -96.295    -228.967    -893.370
  H      -95.036    -227.780    -893.770
  H      -96.444    -227.994    -894.860
  P      -96.704    -225.497    -893.600
  C      -99.279    -225.119    -893.790
  O      -98.036    -225.228    -894.460
  C     -100.394    -224.784    -894.780
  O     -100.155    -223.438    -895.310
  C     -100.456    -225.737    -895.990
  O     -101.820    -225.819    -896.440
  C      -99.626    -224.981    -897.020
  O      -99.868    -225.488    -898.310
  C     -100.115    -223.569    -896.750
  N     -100.016    -219.012    -899.040
  C     -101.025    -219.730    -898.520
  N     -100.971    -220.938    -897.910
  C      -99.702    -221.380    -897.860
  C      -98.565    -220.765    -898.360
  C      -98.761    -219.518    -898.990
  N      -97.729    -218.795    -899.560
  N      -97.442    -221.539    -898.140
  C      -97.903    -222.619    -897.500
  N      -99.257    -222.554    -897.320
  O      -95.551    -225.574    -894.710
  O      -96.412    -224.474    -892.560
  H     -100.826    -225.486    -898.520
  H      -94.687    -225.378    -894.290
  H     -102.012    -219.275    -898.580
  H      -97.293    -223.453    -897.170
  H     -101.134    -223.388    -897.130
  H      -98.554    -225.075    -896.820
  H     -100.081    -226.738    -895.770
  H     -101.356    -224.761    -894.250
  H      -99.208    -224.339    -893.020
  H      -99.512    -226.082    -893.300
  H      -97.963    -217.922    -900.000
  H      -96.795    -219.177    -899.550
  P     -102.810    -226.863    -895.740
  C     -103.827    -225.248    -893.960
  O     -103.089    -226.431    -894.210
  O     -101.865    -228.150    -895.550
  O     -104.031    -227.226    -896.530
  H     -102.344    -228.953    -895.830
  H     -103.923    -225.104    -892.904
  H     -104.799    -225.335    -894.398
  H     -103.316    -224.411    -894.389

 6  7  8  9  10  11  12  13  14  15  25  28  32  33  34  35 0
 6-311+G(2d,p)
 ****
 36  37  40 0
 6-311+G(2d,p)
 ****
 1  2  3  4  5  16  17  18  19  20  21  22  23  24 0
 3-21G
 ****
 26  27  29  30  31  38  39 41  42  43  44  45  46  47  48 0
 3-21G
 ****


