%nproc=1
%NoSave
%Mem=1900MB
#P OB98/GEN NMR

erre ene a

0 1
  C      577.709      36.469     688.294
  O      578.397      36.846     687.115
  H      578.425      36.030     688.992
  H      576.938      35.730     688.063
  H      577.253      37.352     688.757
  P      577.496      37.415     685.914
  C      577.381      35.290     684.405
  O      576.728      36.111     685.365
  C      576.354      34.703     683.435
  O      575.555      33.694     684.089
  C      575.345      35.719     682.896
  O      575.874      36.546     681.875
  C      574.281      34.779     682.375
  O      574.732      34.175     681.142
  C      574.221      33.735     683.514
  N      573.230      34.078     684.538
  C      571.930      33.605     684.320
  O      571.645      32.958     683.317
  N      570.954      33.924     685.244
  C      571.255      34.617     686.297
  N      570.252      34.902     687.166
  C      572.616      35.114     686.570
  C      573.540      34.809     685.659
  O      578.564      37.703     684.757
  O      576.614      38.570     686.242
  H      574.030      33.551     680.862
  H      578.096      37.922     683.909
  H      572.817      35.703     687.452
  H      574.563      35.139     685.796
  H      573.997      32.737     683.124
  H      573.334      35.274     682.154
  H      574.914      36.326     683.702
  H      576.903      34.216     682.620
  H      569.313      34.598     686.920
  H      577.896      34.479     684.938
  H      570.352      35.559     687.930
  H      578.117      35.874     683.841
  P      575.400      38.081     681.848
  C      573.934      37.681     679.728
  O      573.995      38.121     681.085
  O      576.408      38.756     680.799
  O      575.430      38.768     683.177
  H      576.608      39.675     681.055
  H      572.930      37.771     679.368
  H      574.243      36.658     679.671
  H      574.583      38.284     679.128

 6  7  8  9  10  11  12  13  14  15  16  26  30  31  32  33  35 0
 6-311+G(2d,p)
 ****
 37  38 0
 6-311+G(2d,p)
 ****
 1  2  3  4  5  17  18  19  20  21  22  23  24  25 0
 3-21G
 ****
 27  28  29  34  36  39  40  41  42  43  44  45  46 0
 3-21G
 ****


