%nproc=1
%NoSave
%Mem=1900MB
#P OB98/GEN NMR

erre ene a

0 1
  C      482.526     394.036    -157.000
  O      481.756     394.872    -157.834
  P      480.170     395.010    -157.642
  C      479.778     395.313    -160.173
  O      479.629     395.884    -158.877
  C      479.800     396.412    -161.241
  O      478.472     397.019    -161.313
  C      480.814     397.530    -160.931
  O      481.726     397.818    -161.996
  C      479.926     398.685    -160.504
  O      480.540     399.956    -160.610
  C      478.679     398.445    -161.360
  N      477.516     399.193    -160.879
  C      477.322     400.469    -161.397
  O      478.048     400.997    -162.236
  N      476.268     401.170    -160.879
  C      475.484     400.789    -159.833
  O      474.626     401.509    -159.352
  C      475.764     399.443    -159.294
  C      476.732     398.706    -159.852
  O      479.725     395.491    -156.304
  O      479.632     393.543    -158.015
  H      481.253     399.999    -159.941
  H      479.846     393.250    -158.918
  H      476.116     402.102    -161.246
  H      475.167     399.113    -158.460
  H      476.962     397.715    -159.472
  H      478.849     398.716    -162.404
  H      479.672     398.538    -159.446
  H      481.469     397.246    -160.094
  H      480.017     395.936    -162.203
  H      478.933     394.646    -160.360
  H      480.691     394.710    -160.206
  P      483.295     397.513    -161.970
  C      483.973     400.015    -162.210
  O      484.045     398.705    -162.735
  O      483.686     396.137    -162.407
  O      483.699     397.755    -160.438
  H      484.461     397.191    -160.211
  H      484.061     400.730    -163.036
  H      484.800     400.173    -161.521
  H      483.024     400.189    -161.694
  H      483.553     394.087    -157.294
  H      482.180     393.027    -157.088
  H      482.429     394.359    -155.984

 3  4  5  6  7  8  9  10  11  12  13  23  28  29  30  31  32 0
 6-311+G(2d,p)
 ****
 33  34 0
 6-311+G(2d,p)
 ****
 1  2  14  15  16  17  18  19  20  21  22  24  25  26  27 0
 3-21G
 ****
 35  36  37  38  39  40  41  42  43  44  45 0
 3-21G
 ****


