%nproc=1
%NoSave
%Mem=1900MB
#P OB98/GEN NMR

erre ene a

0 1
  C     -482.428     987.556    -312.332
  O     -483.045     986.619    -313.192
  H     -481.656     987.070    -311.722
  H     -481.961     988.332    -312.933
  H     -483.179     988.012    -311.677
  P     -483.697     985.334    -312.497
  C     -483.601     983.256    -314.044
  O     -484.307     984.429    -313.672
  C     -484.443     982.387    -314.969
  O     -485.593     981.878    -314.273
  C     -485.024     983.118    -316.186
  O     -484.052     983.269    -317.213
  C     -486.133     982.159    -316.594
  O     -485.575     981.058    -317.354
  C     -486.649     981.651    -315.243
  N     -491.762     981.318    -314.860
  C     -490.828     980.464    -315.381
  N     -489.502     980.621    -315.460
  C     -489.132     981.787    -314.920
  C     -489.955     982.763    -314.362
  C     -491.330     982.495    -314.352
  N     -492.264     983.364    -313.838
  N     -489.219     983.831    -313.891
  C     -487.969     983.527    -314.157
  N     -487.864     982.299    -314.789
  O     -484.993     985.909    -311.762
  O     -482.807     984.605    -311.535
  H     -485.356     981.420    -318.239
  H     -485.124     985.436    -310.924
  H     -491.244     979.533    -315.785
  H     -487.112     984.131    -313.928
  H     -486.826     980.572    -315.261
  H     -486.895     982.620    -317.222
  H     -485.461     984.094    -315.893
  H     -483.838     981.530    -315.297
  H     -483.343     982.673    -313.153
  H     -493.211     983.036    -313.681
  H     -491.938     984.251    -313.449
  H     -482.678     983.553    -314.547
  P     -484.081     984.631    -318.074
  C     -484.440     983.686    -320.463
  O     -483.521     984.247    -319.515
  O     -482.882     985.484    -317.422
  O     -485.367     985.380    -318.029
  H     -483.044     986.437    -317.563
  H     -483.926     983.480    -321.379
  H     -485.232     984.382    -320.647
  H     -484.847     982.778    -320.070

 6  7  8  9  10  11  12  13  14  15  25  28  32  33  34  35 0
 6-311+G(2d,p)
 ****
 36  39  40 0
 6-311+G(2d,p)
 ****
 1  2  3  4  5  16  17  18  19  20  21  22  23  24 0
 3-21G
 ****
 26  27  29  30  31  37  38  41  42  43  44  45  46  47  48 0
 3-21G
 ****


