%nproc=1
%NoSave
%Mem=1900MB
#P OB98/GEN NMR

erre ene a

0 1
  C     -127.071     119.439     294.864
  O     -128.320     118.794     294.708
  P     -128.394     117.239     294.329
  C     -129.114     117.704     291.892
  O     -128.102     117.172     292.749
  C     -128.754     117.485     290.424
  O     -127.501     118.134     290.107
  C     -128.572     116.025     290.039
  O     -129.827     115.390     289.892
  C     -127.771     116.157     288.748
  O     -128.632     116.425     287.630
  C     -126.875     117.378     289.052
  N     -125.512     116.989     289.399
  C     -124.619     116.863     288.327
  O     -125.005     117.037     287.173
  N     -123.321     116.484     288.590
  C     -122.961     116.242     289.815
  N     -121.667     115.864     290.008
  C     -123.874     116.337     290.965
  C     -125.125     116.713     290.688
  O     -129.624     116.526     294.784
  O     -127.045     116.644     294.966
  H     -129.051     115.571     287.394
  H     -127.110     116.574     295.946
  H     -123.529     116.111     291.963
  H     -125.865     116.803     291.472
  H     -126.830     118.045     288.179
  H     -127.214     115.246     288.514
  H     -127.965     115.514     290.797
  H     -129.545     117.944     289.810
  H     -121.080     115.779     289.188
  H     -129.202     118.779     292.089
  H     -121.288     115.615     290.909
  H     -130.071     117.233     292.131
  P     -129.943     113.802     290.071
  C     -129.887     113.232     287.569
  O     -129.223     113.111     288.820
  O     -131.315     113.291     290.379
  O     -128.935     113.487     291.278
  H     -129.364     112.861     291.894
  H     -129.167     113.029     286.770
  H     -130.294     114.242     287.437
  H     -130.694     112.502     287.511
  H     -127.229     120.467     295.115
  H     -126.520     119.376     293.949
  H     -126.519     118.962     295.646

 3  4  5  6  7  8  9  10  11  12  13  23  27  28  29  30  32 0
 6-311+G(2d,p)
 ****
 34  35 0
 6-311+G(2d,p)
 ****
 1  2  14  15  16  17  18  19  20  21  22  24  25  26 0
 3-21G
 ****
 31  33  36  37  38  39  40  41  42  43  44  45  46 0
 3-21G
 ****


