%nproc=1
%NoSave
%Mem=1900MB
#P OB98/GEN NMR

erre ene a

0 1
  C     -612.986      74.869    -961.459
  O     -614.178      74.956    -962.202
  H     -612.438      75.821    -961.546
  H     -612.340      74.073    -961.826
  H     -613.204      74.715    -960.390
  P     -615.101      73.645    -962.219
  C     -615.090      73.542    -964.819
  O     -614.722      72.889    -963.580
  C     -615.154      72.510    -965.937
  O     -613.857      71.922    -966.166
  C     -616.112      71.362    -965.700
  O     -617.457      71.737    -966.041
  C     -615.566      70.308    -966.656
  O     -616.060      70.581    -968.006
  C     -614.043      70.550    -966.584
  N     -612.161      65.812    -965.919
  C     -613.018      66.328    -966.866
  N     -613.505      67.582    -966.945
  C     -613.059      68.346    -965.927
  C     -612.179      67.970    -964.906
  C     -611.745      66.635    -964.919
  N     -610.903      66.105    -963.968
  N     -611.955      69.018    -964.057
  C     -612.587      70.022    -964.575
  N     -613.309      69.670    -965.702
  O     -616.561      73.869    -961.976
  O     -614.375      72.743    -961.107
  H     -615.952      69.744    -968.510
  H     -613.403      72.814    -961.202
  H     -613.323      65.646    -967.636
  H     -612.573      71.054    -964.214
  H     -613.571      70.457    -967.586
  H     -615.888      69.290    -966.426
  H     -616.041      70.963    -964.679
  H     -615.444      73.061    -966.878
  H     -614.355      74.319    -965.073
  H     -610.777      65.128    -963.960
  H     -610.687      66.685    -963.162
  H     -616.061      74.001    -964.662
  P     -618.697      70.804    -965.647
  C     -619.201      70.237    -968.121
  O     -618.827      69.734    -966.823
  O     -619.961      71.557    -965.331
  O     -618.172      69.935    -964.397
  H     -618.925      69.543    -963.917
  H     -619.253      69.426    -968.816
  H     -618.471      70.945    -968.453
  H     -620.157      70.714    -968.057

 6  7  8  9  10  11  12  13  14  15  25  28  32  33  34  35 0
 6-311+G(2d,p)
 ****
 36  39  40 0
 6-311+G(2d,p)
 ****
 1  2  3  4  5  16  17  18  19  20  21  22  23  24 0
 3-21G
 ****
 26  27  29  30  31  37  38  41  42  43  44  45  46  47 0
 3-21G
 ****
 48 0
 3-21G
 ****


