%nproc=1
%NoSave
%Mem=1900MB
#P OB98/GEN NMR

erre ene a

0 1
  C      592.581      11.973     -74.526
  O      592.769      10.979     -75.516
  H      592.656      11.524     -73.531
  H      593.363      12.728     -74.634
  H      591.607      12.454     -74.645
  P      591.624       9.865     -75.647
  C      592.702       8.325     -73.852
  O      591.581       9.112     -74.226
  C      592.249       7.084     -73.083
  O      593.393       6.519     -72.384
  C      591.161       7.372     -72.040
  O      590.232       6.285     -72.030
  C      591.930       7.405     -70.730
  O      591.102       7.102     -69.610
  C      593.028       6.379     -70.995
  N      596.337       4.122     -67.830
  C      595.349       3.628     -68.605
  N      594.515       4.301     -69.424
  C      594.815       5.611     -69.435
  C      595.790       6.263     -68.696
  C      596.573       5.455     -67.851
  N      597.557       5.954     -67.030
  N      595.764       7.621     -68.953
  C      594.792       7.783     -69.828
  N      594.184       6.601     -70.145
  O      592.305       8.787     -76.623
  O      590.312      10.339     -76.167
  H      590.735       6.201     -69.737
  H      592.234       9.098     -77.546
  H      595.206       2.553     -68.555
  H      594.484       8.730     -70.253
  H      592.691       5.349     -70.826
  H      592.358       8.405     -70.579
  H      590.631       8.306     -72.229
  H      591.915       6.328     -73.803
  H      593.365       8.925     -73.217
  H      598.029       5.318     -66.411
  H      597.706       6.955     -66.990
  H      593.249       8.023     -74.753
  P      589.150       6.257     -73.217
  C      587.627       8.150     -72.315
  O      588.495       7.713     -73.351
  O      587.965       5.358     -72.617
  O      589.676       5.676     -74.492
  H      587.716       4.665     -73.253
  H      587.269       9.133     -72.540
  H      588.160       8.169     -71.387
  H      586.798       7.478     -72.237

 6  7  8  9  10  11  12  13  14  15  25  28  32  33  34  35 0
 6-311+G(2d,p)
 ****
 36  39  40 0
 6-311+G(2d,p)
 ****
 1  2  3  4  5  16  17  18  19  20  21  22  23  24 0
 3-21G
 ****
 26  27  29  30  31  37  38  41  42  43  44  45  46  47 0
 3-21G
 ****
 48 0
 3-21G
 ****


