%nproc=1
%NoSave
%Mem=1900MB
#P OB98/GEN NMR

erre ene a

0 1
  C      965.953     223.795     522.932
  O      965.489     225.027     523.499
  P      965.292     226.274     522.513
  C      967.768     226.716     521.860
  O      966.646     227.140     522.631
  C      968.616     227.926     521.460
  O      967.873     228.773     520.561
  C      969.015     228.831     522.644
  O      970.133     228.321     523.354
  C      969.377     230.129     521.901
  O      970.719     230.025     521.399
  C      968.365     230.134     520.733
  N      966.625     234.886     520.554
  C      967.867     234.399     520.217
  N      968.776     235.277     519.746
  N      968.192     233.128     520.344
  C      967.181     232.352     520.797
  C      965.920     232.735     521.182
  C      965.584     234.150     521.074
  O      964.525     234.642     521.430
  N      965.170     231.655     521.556
  C      965.968     230.606     521.400
  N      967.219     230.997     520.962
  O      964.207     227.154     523.275
  O      964.858     225.934     521.125
  H      971.310     230.083     522.178
  H      963.718     227.728     522.624
  H      966.419     235.866     520.417
  H      965.692     229.583     521.572
  H      968.847     230.434     519.802
  H      969.332     230.997     522.545
  H      968.531     236.227     519.511
  H      968.152     229.028     523.298
  H      969.675     234.911     519.451
  H      969.509     227.561     520.946
  H      967.413     226.228     520.943
  H      968.355     226.014     522.432
  P      970.080     228.512     524.963
  C      970.536     231.063     524.798
  O      970.992     229.794     525.236
  O      970.966     227.276     525.490
  O      968.706     228.526     525.544
  H      970.709     227.055     526.385
  H      969.446     231.164     524.904
  H      970.824     231.224     523.758
  H      971.002     231.841     525.414
  H      966.037     223.057     523.702
  H      966.910     223.949     522.480
  H      965.258     223.459     522.191

 3  4  5  6  7  8  9  10  11  12  23  26  30  31  33  0
 6-311+G(2d,p)
 ****
 35  36  37  38 0
 6-311+G(2d,p)
 ****
 1  2  13  14  15  16  17  18  19  20  21  22  24  25  27  28  29 0
 3-21G
 ****
 32  34  39  40  41  42  43  44  45  46  47  48  49 0
 3-21G
 ****


