%nproc=1
%NoSave
%Mem=1900MB
#P OB98/GEN NMR

erre ene a

0 1
  C     -443.776      11.300     -10.729
  O     -444.695      10.636     -11.573
  H     -443.552      10.653      -9.876
  H     -444.221      12.229     -10.358
  H     -442.844      11.523     -11.256
  P     -444.920      11.192     -13.058
  C     -442.672      10.938     -14.302
  O     -443.941      10.364     -14.027
  C     -441.893      10.088     -15.320
  O     -441.665       8.767     -14.768
  C     -442.711       9.902     -16.603
  O     -441.880       9.728     -17.750
  C     -443.468       8.611     -16.334
  O     -443.912       7.965     -17.525
  C     -442.429       7.822     -15.541
  N     -443.721       2.931     -14.915
  C     -443.265       3.571     -16.046
  N     -443.158       2.818     -17.164
  N     -442.953       4.845     -16.082
  C     -443.181       5.487     -14.912
  C     -443.656       4.969     -13.730
  C     -443.956       3.551     -13.692
  O     -444.385       2.930     -12.720
  N     -443.772       5.935     -12.762
  C     -443.374       7.040     -13.357
  N     -442.994       6.818     -14.659
  O     -444.233      12.644     -13.028
  O     -446.347      11.269     -13.512
  H     -444.580       7.303     -17.266
  H     -444.628      13.219     -13.708
  H     -443.931       1.945     -14.935
  H     -443.344       8.020     -12.894
  H     -441.734       7.301     -16.226
  H     -444.361       8.851     -15.742
  H     -443.547       1.892     -17.232
  H     -443.388      10.737     -16.780
  H     -443.110       3.325     -18.054
  H     -440.908      10.531     -15.505
  H     -442.125      10.988     -13.357
  H     -442.788      11.962     -14.670
  P     -441.848      10.911     -18.828
  C     -440.563      12.954     -17.783
  O     -440.520      11.773     -18.573
  O     -443.034      11.874     -18.366
  O     -442.013      10.444     -20.240
  H     -443.803      11.779     -18.962
  H     -439.585      13.384     -17.731
  H     -440.899      12.711     -16.797
  H     -441.238      13.656     -18.227

 6  7  8  9  10  11  12  13  14  15  26  29  33  34 0
 6-311+G(2d,p)
 ****
 36  38  39  40  41 0
 6-311+G(2d,p)
 ****
 1  2  3  4  5  16  17  18  19  20  21  22  23  24  25 0
 3-21G
 ****
 27  28  30  31  32  35  37  42  43  44  45  46  47 0
 3-21G
 ****
 48  49 0
 3-21G
 ****


