%nproc=1
%NoSave
%Mem=1900MB
#P OB98/GEN NMR

erre ene a

0 1
  C      520.873    1203.772     615.623
  O      521.880    1203.227     616.501
  P      522.192    1201.668     616.441
  C      520.794    1200.538     618.328
  O      520.925    1200.822     616.945
  C      519.547    1199.642     618.606
  O      519.756    1198.313     618.006
  C      519.250    1199.405     620.104
  O      517.836    1199.275     620.228
  C      519.917    1198.066     620.375
  O      519.425    1197.414     621.526
  C      519.594    1197.328     619.055
  N      520.447    1196.160     618.811
  C      519.938    1194.919     619.169
  O      518.868    1194.739     619.741
  N      520.752    1193.837     618.851
  C      521.991    1193.893     618.291
  O      522.682    1192.902     618.075
  C      522.487    1195.241     617.963
  C      521.701    1196.302     618.231
  O      523.216    1201.487     617.657
  O      522.805    1201.172     615.174
  H      519.811    1196.514     621.542
  H      523.967    1200.939     617.380
  H      520.407    1192.934     619.088
  H      523.465    1195.337     617.494
  H      522.029    1197.306     617.980
  H      518.545    1197.026     619.059
  H      520.996    1198.221     620.490
  H      519.640    1200.222     620.754
  H      518.686    1200.088     618.101
  H      520.691    1201.453     618.901
  H      521.699    1200.022     618.680
  P      516.978    1200.599     620.585
  C      517.620    1200.907     623.117
  O      517.748    1201.364     621.773
  O      515.721    1199.958     621.331
  O      516.585    1201.436     619.393
  H      515.972    1199.256     621.966
  H      517.618    1199.830     623.161
  H      516.685    1201.296     623.513
  H      518.444    1201.311     623.694
  H      520.787    1204.826     615.789
  H      519.933    1203.302     615.823
  H      521.152    1203.593     614.606

 3  4  5  6  7  8  9  10  11  12  13  23  28  29  30  31  32 0
 6-311+G(2d,p)
 ****
 33  34 0
 6-311+G(2d,p)
 ****
 1  2  14  15  16  17  18  19  20  21  22  24  25  26 0
 3-21G
 ****
 27  35  36  37  38  39  40  41  42  43  44  45 0
 3-21G
 ****


