%nproc=1
%NoSave
%Mem=1900MB
#P OB98/GEN NMR

erre ene a

0 1
  C       60.349    -365.957     108.052
  O       60.577    -367.242     108.600
  H       61.230    -365.336     108.240
  H       59.480    -365.482     108.514
  H       60.203    -366.031     106.968
  P       59.334    -368.257     108.678
  C       59.644    -368.940     111.152
  O       59.743    -369.349     109.788
  C       58.803    -369.930     111.963
  O       57.433    -369.897     111.524
  C       59.242    -371.382     111.797
  O       60.493    -371.683     112.378
  C       58.003    -372.150     112.240
  O       57.935    -372.362     113.646
  C       56.863    -371.197     111.796
  N       56.120    -371.719     110.657
  C       55.278    -372.794     110.917
  O       55.165    -373.311     112.033
  N       54.601    -373.291     109.843
  C       54.713    -372.864     108.551
  O       54.105    -373.384     107.622
  C       55.640    -371.742     108.329
  C       56.289    -371.226     109.374
  O       58.896    -368.856     107.376
  O       58.193    -367.407     109.410
  H       57.162    -372.937     113.811
  H       57.303    -367.820     109.281
  H       53.973    -374.065     110.017
  H       55.762    -371.372     107.312
  H       56.981    -370.395     109.239
  H       56.151    -371.057     112.621
  H       57.950    -373.135     111.766
  H       59.359    -371.580     110.723
  H       58.832    -369.627     113.017
  H       59.157    -367.954     111.172
  H       60.646    -368.845     111.582
  P       61.625    -372.528     111.638
  C       61.510    -374.458     113.379
  O       62.323    -373.490     112.729
  O       62.494    -371.794     110.664
  O       60.732    -373.576     110.796
  H       61.202    -373.751     109.954
  H       62.105    -375.018     114.070
  H       61.092    -375.120     112.650
  H       60.721    -373.965     113.907

 6  7  8  9  10  11  12  13  14  15  16  26  31  32  33  34  35 0
 6-311+G(2d,p)
 ****
 36  37 0
 6-311+G(2d,p)
 ****
 1  2  3  4  5  17  18  19  20  21  22  23  24  25 0
 3-21G
 ****
 27  28  29  30  38  39  40  41  42  43  44  45 0
 3-21G
 ****


