%nproc=1
%NoSave
%Mem=1900MB
#P OB98/GEN NMR

erre ene a

0 1
  C      485.159    -639.958    -685.242
  O      486.078    -639.326    -684.372
  H      484.144    -639.688    -684.937
  H      485.265    -641.045    -685.178
  H      485.324    -639.624    -686.269
  P      487.634    -639.643    -684.614
  C      487.994    -637.087    -684.708
  O      488.401    -638.318    -684.111
  C      488.396    -635.910    -683.820
  O      487.389    -635.755    -682.775
  C      489.760    -636.086    -683.134
  O      490.415    -634.815    -683.049
  C      489.385    -636.545    -681.737
  O      490.412    -636.279    -680.788
  C      488.085    -635.769    -681.509
  N      487.845    -636.889    -676.546
  C      488.691    -636.110    -677.257
  N      488.667    -635.853    -678.585
  C      487.602    -636.442    -679.168
  C      486.655    -637.262    -678.567
  C      486.822    -637.498    -677.183
  N      485.982    -638.312    -676.453
  N      485.749    -637.714    -679.509
  C      486.134    -637.169    -680.646
  N      487.261    -636.407    -680.492
  O      487.994    -640.100    -685.986
  O      487.946    -640.684    -683.431
  H      490.287    -636.871    -680.017
  H      487.586    -640.375    -682.581
  H      489.496    -635.653    -676.692
  H      485.644    -637.307    -681.612
  H      488.259    -634.733    -681.188
  H      489.198    -637.624    -681.742
  H      490.400    -636.801    -683.638
  H      488.372    -634.985    -684.427
  H      486.905    -637.077    -684.860
  H      486.167    -638.415    -675.473
  H      485.207    -638.769    -676.915
  H      488.485    -637.012    -685.687
  P      491.381    -634.355    -684.250
  C      490.518    -631.923    -684.175
  O      491.652    -632.775    -684.114
  O      490.969    -634.814    -685.611
  O      492.793    -634.986    -683.815
  H      493.218    -635.363    -684.623
  H      490.831    -630.905    -684.073
  H      489.843    -632.170    -683.382
  H      490.025    -632.052    -685.116

 6  7  8  9  10  11  12  13  14  15  25  28  32  33  34  35 0
 6-311+G(2d,p)
 ****
 36  39  40 0
 6-311+G(2d,p)
 ****
 1  2  3  4  5  16  17  18  19  20  21  22  23  24 0
 3-21G
 ****
 26  27  29  30  31  37  38  41  42  43  44  45  46  47 0
 3-21G
 ****
 48 0
 3-21G
 ****


