%nproc=1
%NoSave
%Mem=1900MB
#P OB98/GEN NMR

erre ene a

0 1
  C      -25.350    -123.062     102.012
  O      -26.010    -123.014     103.262
  H      -25.609    -124.000     101.515
  H      -24.268    -123.029     102.162
  H      -25.667    -122.226     101.381
  P      -25.908    -121.636     104.080
  C      -27.166    -119.346     103.816
  O      -27.140    -120.741     103.577
  C      -28.584    -118.797     103.649
  O      -29.020    -119.042     102.287
  C      -29.607    -119.437     104.589
  O      -30.558    -118.440     104.969
  C      -30.289    -120.472     103.711
  O      -31.585    -120.815     104.193
  C      -30.264    -119.770     102.345
  N      -30.391    -120.709     101.233
  C      -31.688    -121.089     100.875
  O      -32.656    -120.647     101.494
  N      -31.859    -121.989      99.855
  C      -30.823    -122.518      99.284
  N      -31.059    -123.424      98.297
  C      -29.435    -122.183      99.658
  C      -29.294    -121.274     100.623
  O      -24.635    -120.945     103.399
  O      -25.802    -121.802     105.558
  H      -32.074    -119.986     104.391
  H      -24.635    -121.005     102.429
  H      -28.603    -122.659      99.160
  H      -28.312    -120.961     100.955
  H      -31.080    -119.039     102.272
  H      -29.690    -121.390     103.677
  H      -29.149    -119.870     105.480
  H      -28.554    -117.709     103.780
  H      -32.025    -123.642      98.088
  H      -26.493    -118.829     103.125
  H      -30.332    -123.939      97.823
  H      -26.808    -119.170     104.835
  P      -30.474    -117.785     106.427
  C      -28.501    -117.172     107.983
  O      -29.007    -117.179     106.653
  O      -30.995    -118.622     107.545
  O      -31.368    -116.457     106.267
  H      -31.899    -116.355     107.080
  H      -27.521    -116.744     107.989
  H      -28.454    -118.175     108.352
  H      -29.148    -116.592     108.608

 6  7  8  9  10  11  12  13  14  15  16  26  30  31  32  33  35 0
 6-311+G(2d,p)
 ****
 37  38 0
 6-311+G(2d,p)
 ****
 1  2  3  4  5  17  18  19  20  21  22  23  24  25 0
 3-21G
 ****
 27  28  29  34  36  39  40  41  42  43  44  45  46 0
 3-21G
 ****


