%nproc=1
%NoSave
%Mem=1900MB
#P OB98/GEN NMR

erre ene a

0 1
  C      -16.525    -217.847     115.801
  O      -15.228    -218.197     115.358
  H      -17.127    -218.758     115.869
  H      -16.997    -217.163     115.088
  H      -16.471    -217.385     116.790
  P      -14.188    -216.990     115.157
  C      -13.815    -217.903     112.759
  O      -14.133    -216.775     113.566
  C      -14.704    -217.941     111.520
  O      -16.090    -217.820     111.896
  C      -14.432    -216.829     110.513
  O      -13.345    -217.173     109.674
  C      -15.748    -216.805     109.743
  O      -15.748    -217.856     108.758
  C      -16.788    -217.110     110.839
  N      -20.651    -213.765     110.340
  C      -20.157    -214.695     109.497
  N      -19.098    -215.510     109.672
  C      -18.523    -215.302     110.870
  C      -18.914    -214.380     111.836
  C      -20.037    -213.590     111.534
  N      -20.533    -212.636     112.400
  N      -18.086    -214.444     112.940
  C      -17.254    -215.425     112.668
  N      -17.454    -215.955     111.414
  O      -12.872    -217.147     115.849
  O      -15.070    -215.745     115.643
  H      -14.986    -217.693     108.170
  H      -15.984    -215.827     115.323
  H      -20.686    -214.796     108.554
  H      -16.502    -215.812     113.346
  H      -17.580    -217.773     110.464
  H      -15.902    -215.867     109.212
  H      -14.287    -215.859     111.012
  H      -14.581    -218.928     111.046
  H      -13.941    -218.829     113.338
  H      -21.211    -211.990     112.025
  H      -19.995    -212.421     113.227
  H      -12.759    -217.821     112.469
  P      -12.052    -216.233     109.566
  C      -12.650    -216.142     107.063
  O      -12.260    -215.392     108.209
  O      -10.750    -216.948     109.691
  O      -12.266    -215.133     110.705
  H      -11.420    -214.676     110.896
  H      -12.758    -215.484     106.226
  H      -13.583    -216.629     107.256
  H      -11.902    -216.876     106.846

 6  7  8  9  10  11  12  13  14  15  25  28  32  33  34  35 0
 6-311+G(2d,p)
 ****
 36  39  40 0
 6-311+G(2d,p)
 ****
 1  2  3  4  5  16  17  18  19  20  21  22  23  24 0
 3-21G
 ****
 26  27  29  30  31  37  38  41  42  43  44  45  46  47 0
 3-21G
 ****
 48 0
 3-21G
 ****


