%nproc=1
%NoSave
%Mem=1900MB
#P OB98/GEN NMR

erre ene a

0 1
  C     1008.721    -637.985      46.760
  O     1008.272    -638.279      45.466
  P     1008.637    -637.308      44.237
  C     1006.797    -638.386      42.801
  O     1007.327    -637.179      43.288
  C     1005.285    -638.345      42.863
  O     1004.820    -638.448      44.242
  C     1004.664    -637.067      42.350
  O     1004.649    -637.050      40.913
  C     1003.264    -637.116      42.983
  O     1002.393    -637.970      42.200
  C     1003.566    -637.745      44.328
  N     1000.790    -634.989      47.623
  C     1000.418    -635.758      46.573
  N     1001.235    -636.441      45.707
  C     1002.544    -636.246      46.037
  C     1003.041    -635.455      47.031
  C     1002.099    -634.803      47.903
  N     1002.451    -634.079      48.998
  N     1004.431    -635.483      47.022
  C     1004.744    -636.251      46.004
  N     1003.623    -636.799      45.417
  O     1009.907    -637.623      43.515
  O     1008.733    -635.846      44.933
  H     1001.597    -638.155      42.747
  H     1009.634    -635.506      44.805
  H      999.362    -635.845      46.386
  H     1005.760    -636.464      45.683
  H     1002.790    -638.475      44.605
  H     1002.803    -636.126      43.039
  H     1005.195    -636.204      42.736
  H     1004.863    -639.201      42.328
  H     1007.170    -639.212      43.440
  H     1001.708    -633.803      49.615
  H     1003.372    -634.202      49.403
  H     1007.130    -638.549      41.764
  P     1004.917    -635.671      40.146
  C     1003.877    -636.433      37.900
  O     1003.795    -635.549      39.030
  O     1006.323    -635.448      39.636
  O     1004.484    -634.541      41.203
  H     1005.043    -633.762      41.068
  H     1004.648    -636.053      37.228
  H     1002.910    -636.471      37.431
  H     1004.146    -637.444      38.248
  H     1008.380    -638.741      47.436
  H     1008.335    -637.034      47.064
  H     1009.791    -637.955      46.768

 3  4  5  6  7  8  9  10  11  12  22  25  29  30  31  32 0
 6-311+G(2d,p)
 ****
 33  36  37 0
 6-311+G(2d,p)
 ****
 1  2  13  14  15  16  17  18  19  20  21  23  24  26 0
 3-21G
 ****
 27  28  34  35  38  39  40  41  42  43  44  45  46  47  48 0
 3-21G
 ****


