%nproc=1
%NoSave
%Mem=1900MB
#P OB98/GEN NMR

erre ene a

0 1
  C       27.374      74.510      -5.370
  O       26.810      73.353      -5.955
  H       26.687      75.347      -5.517
  H       28.326      74.745      -5.853
  H       27.526      74.360      -4.297
  P       27.577      71.966      -5.695
  C       28.316      71.243      -3.282
  O       27.266      71.578      -4.171
  C       27.856      70.180      -2.282
  O       26.832      70.755      -1.432
  C       27.270      68.930      -2.939
  O       27.627      67.794      -2.150
  C       25.770      69.155      -2.844
  O       25.038      67.934      -2.908
  C       25.665      69.911      -1.510
  N       24.431      70.686      -1.405
  C       23.244      69.961      -1.267
  O       23.266      68.730      -1.253
  N       22.056      70.641      -1.192
  C       22.044      71.932      -1.309
  N       20.832      72.545      -1.252
  C       23.268      72.735      -1.501
  C       24.414      72.056      -1.529
  O       29.106      72.439      -5.663
  O       27.282      70.901      -6.697
  H       24.079      68.145      -2.896
  H       29.250      73.247      -5.144
  H       23.207      73.808      -1.605
  H       25.361      72.566      -1.657
  H       25.704      69.210      -0.667
  H       25.432      69.793      -3.669
  H       27.614      68.791      -3.966
  H       28.701      69.925      -1.632
  H       20.017      71.955      -1.143
  H       28.652      72.131      -2.738
  H       20.699      73.537      -1.387
  H       29.156      70.868      -3.875
  P       28.880      66.897      -2.580
  C       30.903      68.227      -3.491
  O       30.232      67.724      -2.341
  O       28.771      66.226      -3.907
  O       28.944      65.797      -1.408
  H       29.150      64.935      -1.819
  H       31.783      68.755      -3.188
  H       30.253      68.892      -4.021
  H       31.177      67.413      -4.129

 6  7  8  9  10  11  12  13  14  15  16  26  30  31  32  33  35 0
 6-311+G(2d,p)
 ****
 37  38 0
 6-311+G(2d,p)
 ****
 1  2  3  4  5  17  18  19  20  21  22  23  24  25 0
 3-21G
 ****
 27  28  29  34  36  39  40  41  42  43  44  45  46 0
 3-21G
 ****


