%nproc=1
%NoSave
%Mem=1900MB
#P OB98/GEN NMR

erre ene a

0 1
  C        1.557     -17.124     128.021
  O        1.742     -18.485     128.354
  H        0.609     -16.761     128.427
  H        2.372     -16.539     128.458
  H        1.571     -16.994     126.935
  P        0.625     -19.513     127.835
  C       -0.927     -18.947     129.845
  O       -0.760     -18.967     128.434
  C       -1.529     -20.271     130.300
  O       -1.823     -20.222     131.715
  C       -2.847     -20.615     129.615
  O       -2.661     -21.202     128.339
  C       -3.427     -21.613     130.602
  O       -2.773     -22.885     130.448
  C       -3.044     -20.976     131.947
  N       -8.009     -20.475     133.097
  C       -7.290     -21.522     132.638
  N       -5.968     -21.581     132.378
  C       -5.377     -20.407     132.647
  C       -5.978     -19.254     133.126
  C       -7.364     -19.312     133.350
  N       -8.105     -18.238     133.788
  N       -5.047     -18.241     133.259
  C       -3.906     -18.783     132.885
  N       -4.060     -20.080     132.475
  O        0.893     -20.835     128.697
  O        0.605     -19.769     126.365
  H       -3.038     -23.436     131.209
  H        0.420     -21.595     128.310
  H       -7.853     -22.433     132.452
  H       -2.948     -18.277     132.882
  H       -2.834     -21.722     132.722
  H       -4.496     -21.781     130.454
  H       -3.510     -19.744     129.558
  H       -0.785     -21.061     130.142
  H       -1.599     -18.124     130.113
  H       -9.108     -18.334     133.775
  H       -7.663     -17.331     133.837
  H        0.044     -18.789     130.324
  P       -3.570     -20.658     127.132
  C       -5.614     -22.250     127.327
  O       -5.094     -20.944     127.548
  O       -3.299     -21.723     125.971
  O       -3.264     -19.260     126.703
  H       -3.349     -21.301     125.092
  H       -6.633     -22.288     127.651
  H       -5.037     -22.962     127.880
  H       -5.563     -22.482     126.284

 6  7  8  9  10  11  12  13  14  15  25  28  32  33  34  35 0
 6-311+G(2d,p)
 ****
 36  39  40 0
 6-311+G(2d,p)
 ****
 1  2  3  4  5  16  17  18  19  20  21  22  23  24 0
 3-21G
 ****
 26  27  29  30  31  37  38  41  42  43  44  45  46  47 0
 3-21G
 ****
 48 0
 3-21G
 ****


