%nproc=1
%NoSave
%Mem=1900MB
#P OB98/GEN NMR

erre ene a

0 1
  C      619.076    -918.365     -15.601
  O      619.554    -918.774     -16.898
  P      620.009    -917.646     -17.940
  C      620.584    -917.819     -20.470
  O      619.670    -918.131     -19.422
  C      621.119    -919.107     -21.121
  O      622.052    -919.795     -20.267
  C      620.031    -920.127     -21.445
  O      619.390    -919.819     -22.663
  C      620.844    -921.396     -21.581
  O      621.471    -921.449     -22.891
  C      621.914    -921.217     -20.501
  N      623.725    -924.141     -16.694
  C      624.302    -923.685     -17.830
  N      623.731    -922.922     -18.804
  C      622.478    -922.622     -18.499
  C      621.757    -923.019     -17.384
  C      622.431    -923.818     -16.448
  N      621.846    -924.284     -15.285
  N      620.463    -922.523     -17.420
  C      620.403    -921.837     -18.545
  N      621.582    -921.880     -19.225
  O      621.613    -917.709     -17.875
  O      619.527    -916.273     -17.593
  H      621.973    -922.295     -22.917
  H      621.988    -916.827     -17.992
  H      625.333    -923.969     -17.998
  H      619.544    -921.302     -18.892
  H      622.904    -921.595     -20.794
  H      620.249    -922.314     -21.494
  H      619.313    -920.220     -20.611
  H      621.646    -918.827     -22.049
  H      621.425    -917.239     -20.081
  H      622.403    -924.822     -14.644
  H      620.890    -924.024     -15.089
  H      620.071    -917.194     -21.214
  P      617.804    -919.485     -22.604
  C      616.452    -917.709     -23.929
  O      617.464    -918.705     -23.954
  O      617.720    -918.384     -21.459
  O      616.944    -920.688     -22.313
  H      616.844    -918.463     -20.989
  H      616.567    -917.077     -24.810
  H      616.543    -917.095     -23.007
  H      615.482    -918.185     -23.950
  H      618.814    -919.230     -15.028
  H      618.215    -917.741     -15.719
  H      619.844    -917.820     -15.093

 3  4  5  6  7  8  9  10  11  12  22  25  29  30  31  32 0
 6-311+G(2d,p)
 ****
 33  36  37 0
 6-311+G(2d,p)
 ****
 1  2  13  14  15  16  17  18  19  20  21  23  24  26 0
 3-21G
 ****
 27  28  34  35  38  39  40  41  42  43  44  45  46  47  48 0
 3-21G
 ****


