%nproc=1
%NoSave
%Mem=1900MB
#P OB98/GEN NMR

erre ene a

0 1
  C      156.939     -11.153     -44.271
  O      156.449     -11.615     -43.029
  P      155.453     -12.867     -42.933
  C      152.890     -13.026     -43.063
  O      154.052     -12.356     -43.527
  C      151.773     -12.994     -44.108
  O      152.257     -13.566     -45.354
  C      150.504     -13.760     -43.709
  O      149.406     -13.043     -44.283
  C      150.693     -15.092     -44.409
  O      149.476     -15.811     -44.557
  C      151.361     -14.640     -45.714
  N      152.053     -15.735     -46.382
  C      151.603     -16.078     -47.659
  O      150.615     -15.517     -48.140
  N      152.243     -17.081     -48.342
  C      153.183     -17.753     -47.754
  N      153.785     -18.733     -48.480
  C      153.603     -17.509     -46.362
  C      153.013     -16.486     -45.746
  O      155.368     -13.510     -41.591
  O      155.974     -13.853     -44.081
  H      149.068     -15.915     -43.670
  H      156.788     -14.329     -43.782
  H      154.351     -18.131     -45.896
  H      153.256     -16.229     -44.725
  H      150.615     -14.227     -46.406
  H      151.381     -15.718     -43.828
  H      150.376     -13.865     -42.630
  H      151.528     -11.944     -44.307
  H      153.476     -18.857     -49.436
  H      152.541     -12.514     -42.162
  H      154.580     -19.258     -48.148
  H      153.136     -14.056     -42.788
  P      147.964     -13.032     -43.585
  C      145.947     -14.605     -43.518
  O      147.329     -14.485     -43.800
  O      147.079     -11.894     -43.980
  O      148.282     -13.002     -42.013
  H      147.481     -12.741     -41.525
  H      145.573     -15.533     -43.959
  H      145.386     -13.763     -43.933
  H      145.797     -14.641     -42.434
  H      157.584     -10.314     -44.110
  H      156.118     -10.859     -44.891
  H      157.486     -11.936     -44.752

 3  4  5  6  7  8  9  10  11  12  13  23  27  28  29  30  32 0
 6-311+G(2d,p)
 ****
 34  35 0
 6-311+G(2d,p)
 ****
 1  2  14  15  16  17  18  19  20  21  22  24  25  26 0
 3-21G
 ****
 31  33  36  37  38  39  40  41  42  43  44  45  46 0
 3-21G
 ****


