%nproc=1
%NoSave
%Mem=1900MB
#P OB98/GEN NMR

erre ene a

0 1
  C       23.215    -218.892     155.093
  O       22.322    -218.732     154.009
  H       24.121    -218.318     154.886
  H       23.486    -219.944     155.219
  H       22.766    -218.508     156.014
  P       20.953    -219.572     154.018
  C       19.316    -217.607     153.586
  O       19.847    -218.521     154.534
  C       18.004    -217.020     154.098
  O       18.217    -216.208     155.272
  C       17.288    -216.096     153.117
  O       16.657    -216.783     152.048
  C       16.288    -215.437     154.053
  O       15.212    -216.350     154.331
  C       17.162    -215.205     155.312
  N       17.736    -213.860     155.369
  C       17.250    -213.013     156.373
  O       16.383    -213.406     157.156
  N       17.732    -211.729     156.448
  C       18.609    -211.318     155.584
  N       19.018    -210.021     155.669
  C       19.159    -212.180     154.518
  C       18.683    -213.420     154.466
  O       20.983    -220.877     154.744
  O       20.561    -219.715     152.471
  H       14.612    -216.327     153.562
  H       19.725    -220.238     152.421
  H       19.883    -211.784     153.817
  H       19.025    -214.108     153.701
  H       16.582    -215.384     156.227
  H       15.841    -214.525     153.638
  H       17.972    -215.327     152.736
  H       17.358    -217.859     154.402
  H       18.584    -209.444     156.388
  H       19.168    -218.141     152.640
  H       19.464    -209.551     154.891
  H       20.020    -216.786     153.419
  P       16.469    -216.003     150.658
  C       18.452    -217.221     149.480
  O       17.902    -215.995     149.934
  O       16.267    -214.485     151.124
  O       15.349    -216.491     149.787
  H       15.324    -214.263     151.207
  H       19.403    -217.038     149.025
  H       17.793    -217.664     148.763
  H       18.575    -217.886     150.310

 6  7  8  9  10  11  12  13  14  15  16  26  30  31  32  33  35 0
 6-311+G(2d,p)
 ****
 37  38 0
 6-311+G(2d,p)
 ****
 1  2  3  4  5  17  18  19  20  21  22  23  24  25 0
 3-21G
 ****
 27  28  29  34  36  39  40  41  42  43  44  45  46 0
 3-21G
 ****


