%nproc=1
%NoSave
%Mem=1900MB
#P OB98/GEN NMR

erre ene a

0 1
  C      855.860     781.740    -174.679
  O      854.650     781.846    -173.911
  P      854.380     783.026    -172.865
  C      853.016     781.571    -171.230
  O      853.025     782.723    -172.060
  C      851.605     780.974    -171.101
  O      851.291     780.190    -172.263
  C      851.413     780.031    -169.921
  O      851.297     780.764    -168.712
  C      850.145     779.282    -170.341
  O      848.971     780.042    -170.040
  C      850.362     779.153    -171.866
  N      850.821     777.838    -172.251
  C      849.837     776.835    -172.378
  O      848.661     777.101    -172.089
  N      850.210     775.587    -172.779
  C      851.468     775.321    -172.979
  N      851.778     774.062    -173.395
  C      852.541     776.314    -172.788
  C      852.152     777.529    -172.434
  O      854.435     784.395    -173.463
  O      855.517     782.860    -171.746
  H      848.734     779.831    -169.125
  H      855.738     783.737    -171.383
  H      853.566     776.037    -172.941
  H      852.874     778.319    -172.268
  H      849.427     779.380    -172.391
  H      850.061     778.311    -169.828
  H      852.249     779.329    -169.854
  H      850.897     781.803    -171.052
  H      851.014     773.406    -173.527
  H      853.374     781.862    -170.230
  H      852.718     773.754    -173.577
  H      853.707     780.833    -171.640
  P      852.291     780.469    -167.489
  C      850.350     780.450    -165.807
  O      851.605     781.023    -166.157
  O      853.709     780.884    -167.703
  O      852.195     778.873    -167.295
  H      853.049     778.543    -166.977
  H      850.197     780.602    -164.726
  H      850.328     779.387    -166.029
  H      849.562     780.970    -166.357
  H      855.810     780.874    -175.306
  H      856.696     781.653    -174.017
  H      855.975     782.613    -175.286

 3  4  5  6  7  8  9  10  11  12  13  23  27  28  29  30  32 0
 6-311+G(2d,p)
 ****
 34  35 0
 6-311+G(2d,p)
 ****
 1  2  14  15  16  17  18  19  20  21  22  24  25  26 0
 3-21G
 ****
 31  33  36  37  38  39  40  41  42  43  44  45  46 0
 3-21G
 ****


