%nproc=1
%NoSave
%Mem=1900MB
#P OB98/GEN NMR

erre ene a

0 1
  C      254.200     -88.556      44.786
  O      252.914     -88.040      44.501
  P      251.684     -88.519      45.411
  C      251.610     -91.049      44.741
  O      251.006     -89.764      44.670
  C      250.553     -92.130      44.511
  O      249.477     -92.017      45.468
  C      249.876     -92.054      43.147
  O      250.711     -92.603      42.121
  C      248.604     -92.848      43.382
  O      248.840     -94.258      43.235
  C      248.273     -92.486      44.842
  N      247.186     -91.525      44.953
  C      245.895     -92.023      44.779
  O      245.676     -93.206      44.534
  N      244.885     -91.114      44.877
  C      245.023     -89.770      45.068
  O      244.071     -88.998      45.080
  C      246.401     -89.286      45.197
  C      247.401     -90.169      45.141
  O      250.610     -87.348      45.273
  O      252.038     -88.792      46.841
  H      249.065     -94.419      42.300
  H      250.130     -87.228      46.118
  H      243.930     -91.467      44.783
  H      246.553     -88.220      45.346
  H      248.443     -89.830      45.221
  H      247.990     -93.394      45.398
  H      247.815     -92.582      42.660
  H      249.625     -91.010      42.907
  H      251.031     -93.117      44.642
  H      252.063     -91.178      45.738
  H      252.401     -91.115      43.990
  P      250.767     -91.803      40.726
  C      248.293     -92.401      40.138
  O      249.666     -92.506      39.803
  O      252.184     -92.317      40.152
  O      250.679     -90.321      40.893
  H      252.375     -93.240      40.428
  H      248.057     -91.426      40.593
  H      248.038     -93.197      40.844
  H      247.700     -92.517      39.250
  H      254.909     -88.146      44.098
  H      254.186     -89.622      44.691
  H      254.477     -88.291      45.785

 3  4  5  6  7  8  9  10  11  12  13  23  28  29  30  31  32 0
 6-311+G(2d,p)
 ****
 33  34 0
 6-311+G(2d,p)
 ****
 1  2  14  15  16  17  18  19  20  21  22  24  25  26 0
 3-21G
 ****
 27  35  36  37  38  39  40  41  42  43  44  45 0
 3-21G
 ****


