%nproc=1
%NoSave
%Mem=1900MB
#P OB98/GEN NMR

erre ene a

0 1
  C     -217.349     710.530    -574.409
  O     -218.213     711.590    -574.039
  P     -217.987     713.065    -574.629
  C     -219.361     712.477    -576.730
  O     -218.105     712.917    -576.222
  C     -219.777     713.298    -577.950
  O     -220.288     714.587    -577.548
  C     -218.634     713.595    -578.911
  O     -218.344     712.452    -579.701
  C     -219.208     714.769    -579.693
  O     -220.080     714.328    -580.740
  C     -219.995     715.526    -578.600
  N     -219.289     716.696    -578.106
  C     -219.204     717.777    -578.987
  O     -219.685     717.695    -580.114
  N     -218.543     718.912    -578.583
  C     -217.980     718.945    -577.402
  N     -217.332     720.096    -577.068
  C     -218.021     717.817    -576.464
  C     -218.679     716.731    -576.871
  O     -216.767     713.765    -574.133
  O     -219.355     713.820    -574.241
  H     -220.597     713.589    -580.368
  H     -219.379     714.034    -573.276
  H     -217.528     717.886    -575.500
  H     -218.753     715.848    -576.241
  H     -220.974     715.860    -578.996
  H     -218.419     715.381    -580.160
  H     -217.749     713.918    -578.357
  H     -220.580     712.758    -578.467
  H     -217.297     720.836    -577.752
  H     -220.111     712.600    -575.938
  H     -216.836     720.208    -576.200
  H     -219.299     711.414    -576.979
  P     -216.855     712.222    -580.261
  C     -216.101     710.510    -578.500
  O     -215.928     711.815    -579.026
  O     -216.323     713.320    -581.123
  O     -216.976     710.863    -581.086
  H     -216.496     710.965    -581.936
  H     -215.220     710.239    -577.916
  H     -216.230     709.785    -579.311
  H     -216.985     710.487    -577.847
  H     -217.657     709.631    -573.918
  H     -216.347     710.769    -574.120
  H     -217.391     710.389    -575.469

 3  4  5  6  7  8  9  10  11  12  13  23  27  28  29  30  32 0
 6-311+G(2d,p)
 ****
 34  35 0
 6-311+G(2d,p)
 ****
 1  2  14  15  16  17  18  19  20  21  22  24  25  26 0
 3-21G
 ****
 31  33  36  37  38  39  40  41  42  43  44  45  46 0
 3-21G
 ****


