%nproc=1
%NoSave
%Mem=1900MB
#P OB98/GEN NMR

erre ene a

0 1
  C     -545.866     558.836     243.761
  O     -547.036     558.565     244.507
  H     -545.240     557.939     243.761
  H     -545.304     559.654     244.208
  H     -546.115     559.084     242.724
  P     -548.124     559.739     244.654
  C     -549.854     558.337     243.346
  O     -549.558     559.020     244.553
  C     -551.177     557.598     243.478
  O     -551.128     556.655     244.573
  C     -552.381     558.508     243.747
  O     -552.833     559.082     242.535
  C     -553.358     557.494     244.341
  O     -553.934     556.702     243.290
  C     -552.439     556.645     245.213
  N     -550.088     555.891     249.648
  C     -550.044     555.159     248.483
  N     -549.291     554.019     248.507
  N     -550.685     555.481     247.386
  C     -551.447     556.582     247.522
  C     -551.594     557.390     248.631
  C     -550.834     557.049     249.829
  O     -550.833     557.677     250.867
  N     -552.514     558.394     248.417
  C     -552.884     558.219     247.163
  N     -552.280     557.123     246.588
  O     -547.966     560.906     243.738
  O     -548.032     560.161     246.197
  H     -553.216     556.138     242.928
  H     -547.407     560.898     246.319
  H     -549.582     555.579     250.459
  H     -553.588     558.848     246.633
  H     -552.766     555.593     245.269
  H     -554.188     557.975     244.868
  H     -549.012     553.591     249.378
  H     -552.154     559.262     244.504
  H     -549.272     553.456     247.677
  H     -551.327     556.999     242.558
  H     -549.036     557.628     243.152
  H     -549.907     559.037     242.511
  P     -553.654     560.465     242.536
  C     -551.771     562.242     242.557
  O     -552.711     561.511     241.766
  O     -554.108     560.921     243.892
  O     -554.844     560.236     241.502
  H     -555.656     559.838     241.908
  H     -551.209     562.899     241.927
  H     -551.106     561.559     243.043
  H     -552.294     562.815     243.294

 6  7  8  9  10  11  12  13  14  15  26  29  33  34 0
 6-311+G(2d,p)
 ****
 36  38  39  40  41 0
 6-311+G(2d,p)
 ****
 1  2  3  4  5  16  17  18  19  20  21  22  23  24  25 0
 3-21G
 ****
 27  28  30  31  32  35  37  42  43  44  45  46  47 0
 3-21G
 ****
 48  49 0
 3-21G
 ****


