%nproc=1
%NoSave
%Mem=1900MB
#P OB98/GEN NMR

erre ene a

0 1
  C      291.122     638.441     235.635
  O      291.130     637.018     235.844
  P      290.802     636.084     234.584
  C      288.303     635.894     235.290
  O      289.232     636.190     234.264
  C      286.869     636.099     234.793
  O      286.708     637.404     234.209
  C      286.474     635.130     233.693
  O      286.162     633.848     234.237
  C      285.286     635.839     233.046
  O      284.039     635.459     233.678
  C      285.599     637.337     233.292
  N      285.876     638.055     232.065
  C      284.785     638.291     231.234
  O      283.663     637.873     231.542
  N      284.984     638.967     230.062
  C      286.187     639.346     229.732
  N      286.335     640.021     228.546
  C      287.374     639.098     230.567
  C      287.157     638.457     231.716
  O      290.957     634.606     235.179
  O      291.706     636.307     233.412
  H      283.398     636.159     233.429
  H      291.289     633.997     234.488
  H      288.360     639.438     230.259
  H      287.970     638.225     232.397
  H      284.747     637.814     233.790
  H      285.197     635.576     231.994
  H      287.293     635.032     232.965
  H      286.178     635.998     235.650
  H      285.489     640.164     227.991
  H      288.488     636.524     236.171
  H      287.226     640.359     228.203
  H      288.456     634.855     235.621
  P      287.143     632.633     233.910
  C      285.252     631.141     233.031
  O      286.441     631.838     232.706
  O      286.874     631.654     235.159
  O      288.594     632.946     233.746
  H      287.499     630.901     235.130
  H      284.764     630.824     232.099
  H      284.558     631.777     233.573
  H      285.491     630.246     233.618
  H      291.356     638.938     236.553
  H      290.153     638.747     235.301
  H      291.852     638.697     234.895

 3  4  5  6  7  8  9  10  11  12  13  21  23  27  28  29  30  32 0
 6-311+G(2d,p)
 ****
 34  35 0
 6-311+G(2d,p)
 ****
 1  2  14  15  16  17  18  19  20  22  24  25  26 0
 3-21G
 ****
 31  33  36  37  38  39  40  41  42  43  44  45  46 0
 3-21G
 ****


