%nproc=1
%NoSave
%Mem=1900MB
#P OB98/GEN NMR

erre ene a

0 1
  C      170.194     133.586     101.278
  O      169.178     133.550     102.260
  H      169.956     134.369     100.555
  H      170.250     132.627     100.756
  H      171.158     133.812     101.744
  P      169.285     132.382     103.360
  C      167.661     130.804     102.062
  O      168.984     131.045     102.518
  C      167.691     130.230     100.648
  O      168.371     131.131      99.747
  C      168.430     128.900     100.521
  O      167.674     127.789     100.974
  C      168.640     128.864      99.016
  O      167.399     128.536      98.363
  C      169.048     130.327      98.743
  N      170.497     130.540      98.803
  C      171.181     130.546      97.582
  O      170.582     130.378      96.523
  N      172.549     130.707      97.594
  C      173.174     130.872      98.719
  N      174.526     131.026      98.664
  C      172.492     130.886     100.024
  C      171.171     130.717      99.995
  O      167.949     132.561     104.221
  O      170.542     132.351     104.164
  H      167.553     128.635      97.405
  H      167.841     131.796     104.840
  H      173.058     131.013     100.938
  H      170.601     130.716     100.917
  H      168.688     130.658      97.760
  H      169.371     128.118      98.700
  H      169.408     128.935     101.013
  H      166.654     130.142     100.302
  H      174.971     130.953      97.758
  H      167.115     131.754     102.072
  H      175.114     131.008      99.487
  H      167.158     130.097     102.730
  P      168.185     127.048     102.304
  C      168.990     125.071     100.808
  O      169.302     125.994     101.848
  O      166.942     126.123     102.702
  O      168.587     127.961     103.421
  H      166.869     126.039     103.673
  H      169.836     124.442     100.624
  H      168.745     125.608      99.916
  H      168.155     124.470     101.103

 6  7  8  9  10  11  12  13  14  15  16  26  30  31  32  33  35 0
 6-311+G(2d,p)
 ****
 37  38 0
 6-311+G(2d,p)
 ****
 1  2  3  4  5  17  18  19  20  21  22  23  24  25 0
 3-21G
 ****
 27  28  29  34  36  39  40  41  42  43  44  45  46 0
 3-21G
 ****


