%nproc=1
%NoSave
%Mem=1900MB
#P OB98/GEN NMR

erre ene a

0 1
  C      107.790       1.439     251.345
  O      107.941       1.690     252.728
  H      106.807       0.990     251.176
  H      108.560       0.741     251.006
  H      107.857       2.372     250.779
  P      109.244       2.505     253.178
  C      109.629       1.490     255.569
  O      109.215       2.600     254.783
  C      109.926       1.945     256.996
  O      111.068       2.825     257.036
  C      108.813       2.766     257.625
  O      107.678       1.994     257.944
  C      109.539       3.330     258.837
  O      109.627       2.357     259.887
  C      110.940       3.624     258.244
  N      111.148       5.040     257.979
  C      111.617       5.799     259.059
  O      111.838       5.263     260.145
  N      111.794       7.149     258.885
  C      111.550       7.690     257.733
  N      111.737       9.033     257.629
  C      111.081       6.923     256.563
  C      110.897       5.618     256.757
  O      108.894       3.999     252.730
  O      110.538       1.984     252.643
  H      110.182       2.756     260.585
  H      108.044       4.319     253.072
  H      110.899       7.414     255.619
  H      110.553       4.983     255.951
  H      111.726       3.287     258.931
  H      109.028       4.200     259.253
  H      108.547       3.606     256.972
  H      110.158       1.055     257.596
  H      112.040       9.529     258.458
  H      110.504       1.003     255.129
  H      111.549       9.566     256.794
  H      108.812       0.762     255.568
  P      106.319       2.157     257.108
  C      105.348       1.571     259.419
  O      105.157       1.511     258.010
  O      106.372       1.649     255.707
  O      106.004       3.723     257.221
  H      105.883       4.049     258.131
  H      104.516       1.113     259.912
  H      105.425       2.593     259.725
  H      106.247       1.052     259.680

 6  7  8  9  10  11  12  13  14  15  16  26  30  31  32  33  35 0
 6-311+G(2d,p)
 ****
 37  38 0
 6-311+G(2d,p)
 ****
 1  2  3  4  5  17  18  19  20  21  22  23  24  25 0
 3-21G
 ****
 27  28  29  34  36  39  40  41  42  43  44  45  46 0
 3-21G
 ****


