%nproc=1
%NoSave
%Mem=1900MB
#P OB98/GEN NMR

erre ene a

0 1
  C     -157.025    -148.058     -26.565
  O     -158.055    -147.702     -27.462
  P     -158.960    -146.404     -27.217
  C     -158.550    -143.947     -26.560
  O     -157.973    -145.241     -26.706
  C     -158.292    -143.409     -25.147
  O     -159.021    -144.239     -24.190
  C     -156.797    -143.438     -24.758
  O     -156.286    -142.190     -24.283
  C     -156.735    -144.590     -23.768
  O     -155.607    -144.549     -22.912
  C     -158.112    -144.511     -23.105
  N     -158.457    -145.730     -22.380
  C     -157.926    -145.879     -21.102
  O     -157.202    -145.057     -20.548
  N     -158.202    -147.063     -20.475
  C     -158.842    -148.131     -21.026
  O     -158.970    -149.200     -20.441
  C     -159.347    -147.926     -22.393
  C     -159.158    -146.750     -22.992
  O     -160.160    -146.615     -26.354
  O     -159.305    -145.918     -28.703
  H     -155.526    -145.419     -22.479
  H     -158.532    -145.698     -29.253
  H     -157.823    -147.186     -19.548
  H     -159.851    -148.763     -22.861
  H     -159.519    -146.571     -23.999
  H     -158.173    -143.669     -22.412
  H     -156.661    -145.522     -24.344
  H     -156.171    -143.668     -25.626
  H     -158.690    -142.392     -25.098
  H     -159.627    -144.021     -26.723
  H     -158.145    -143.271     -27.321
  P     -154.743    -141.777     -24.274
  C     -152.812    -141.739     -26.016
  O     -154.104    -142.203     -25.677
  O     -153.973    -142.209     -23.070
  O     -154.783    -140.177     -24.369
  H     -154.000    -139.803     -23.927
  H     -152.739    -141.672     -27.107
  H     -152.066    -142.455     -25.659
  H     -152.612    -140.755     -25.587
  H     -156.545    -148.950     -26.909
  H     -157.441    -148.228     -25.594
  H     -156.308    -147.265     -26.512

 3  4  5  6  7  8  9  10  11  12  13  23  28  29  30  31  32 0
 6-311+G(2d,p)
 ****
 33  34 0
 6-311+G(2d,p)
 ****
 1  2  14  15  16  17  18  19  20  21  22  24  25  26  27 0
 3-21G
 ****
 35  36  37  38  39  40  41  42  43  44  45 0
 3-21G
 ****


