%nproc=1
%NoSave
%Mem=1900MB
#P OB98/GEN NMR

erre ene a

0 1
  C      586.350    -896.810     553.149
  O      587.663    -897.340     553.182
  P      588.639    -897.120     551.932
  C      590.533    -896.170     553.400
  O      589.657    -895.930     552.295
  C      591.990    -896.190     552.913
  O      592.324    -894.930     552.287
  C      592.995    -896.350     554.036
  O      593.060    -897.690     554.464
  C      594.276    -895.830     553.363
  O      594.867    -896.870     552.536
  C      593.731    -894.690     552.490
  N      596.008    -890.180     551.844
  C      596.110    -891.330     551.143
  N      595.505    -892.500     551.411
  C      594.718    -892.410     552.519
  C      594.549    -891.300     553.325
  C      595.206    -890.120     552.937
  N      595.075    -888.910     553.586
  N      593.723    -891.590     554.393
  C      593.399    -892.860     554.212
  N      593.940    -893.380     553.082
  O      587.962    -896.970     550.599
  O      589.592    -898.400     551.936
  H      595.067    -897.630     553.149
  H      589.486    -898.900     551.101
  H      596.750    -891.320     550.292
  H      592.774    -893.470     554.912
  H      594.190    -894.700     551.495
  H      595.021    -895.530     554.078
  H      592.746    -895.680     554.886
  H      592.093    -896.970     552.162
  H      590.275    -897.140     553.835
  H      595.486    -888.100     553.120
  H      594.277    -888.790     554.204
  H      590.384    -895.400     554.169
  P      594.033    -898.130     555.665
  C      592.159    -898.820     557.272
  O      593.208    -897.910     557.044
  O      595.388    -897.500     555.635
  O      594.120    -899.700     555.550
  H      595.008    -900.000     555.839
  H      591.306    -898.540     556.656
  H      591.884    -898.770     558.331
  H      592.472    -899.840     557.031
  H      585.845    -897.051     554.061
  H      585.816    -897.231     552.323
  H      586.397    -895.747     553.038

 3  4  5  6  7  8  9  10  11  12  22  25  29  30  31  32 0
 6-311+G(2d,p)
 ****
 33  36  37 0
 6-311+G(2d,p)
 ****
 1  2  13  14  15  16  17  18  19  20  21  23  24  26 0
 3-21G
 ****
 27  28  34  35  38  39  40  41  42  43  44  45  46  47  48 0
 3-21G
 ****


