%nproc=1
%NoSave
%Mem=1900MB
#P OB98/GEN NMR

erre ene a

0 1
  C      225.954    -382.208    1134.791
  O      224.860    -382.841    1135.462
  P      223.590    -382.010    1136.016
  C      222.008    -382.235    1133.974
  O      222.825    -381.351    1134.754
  C      220.556    -381.753    1133.906
  O      220.502    -380.399    1133.386
  C      219.650    -382.576    1132.991
  O      219.242    -383.767    1133.646
  C      218.533    -381.573    1132.699
  O      217.601    -381.547    1133.787
  C      219.302    -380.264    1132.618
  N      217.920    -377.289    1128.660
  C      217.422    -377.415    1129.927
  N      217.845    -378.234    1130.916
  C      218.920    -378.960    1130.511
  C      219.536    -378.921    1129.274
  C      218.989    -378.048    1128.320
  N      219.496    -377.923    1127.039
  N      220.584    -379.823    1129.224
  C      220.601    -380.351    1130.433
  N      219.627    -379.866    1131.245
  O      223.917    -381.046    1137.107
  O      222.558    -383.134    1136.527
  H      216.895    -380.911    1133.558
  H      222.008    -382.758    1137.237
  H      216.574    -376.774    1130.157
  H      221.316    -381.114    1130.765
  H      218.733    -379.426    1133.067
  H      217.975    -381.829    1131.782
  H      220.191    -382.811    1132.061
  H      220.158    -381.721    1134.926
  H      222.037    -383.239    1134.457
  H      219.031    -377.292    1126.388
  H      220.258    -378.529    1126.754
  H      222.448    -382.317    1132.975
  P      218.925    -385.082    1132.784
  C      221.212    -386.186    1133.160
  O      220.313    -385.627    1132.214
  O      217.822    -384.945    1131.779
  O      218.562    -386.178    1133.909
  H      217.928    -386.818    1133.526
  H      221.739    -385.381    1133.676
  H      221.929    -386.821    1132.623
  H      220.690    -386.798    1133.900
  H      226.677    -382.946    1134.513
  H      226.407    -381.492    1135.445
  H      225.595    -381.712    1133.913

 3  4  5  6  7  8  9  10  11  12  22  25  29  30  31  32 0
 6-311+G(2d,p)
 ****
 33  36  37 0
 6-311+G(2d,p)
 ****
 1  2  13  14  15  16  17  18  19  20  21  23  24  26 0
 3-21G
 ****
 27  28  34  35  38  39  40  41  42  43  44  45  46  47  48 0
 3-21G
 ****


