%nproc=1
%NoSave
%Mem=1900MB
#P OB98/GEN NMR

erre ene a

0 1
  C     -741.184    -139.610     403.471
  O     -742.590    -139.633     403.624
  H     -740.788    -140.601     403.687
  H     -740.745    -138.894     404.170
  H     -740.913    -139.339     402.444
  P     -743.412    -138.349     403.129
  C     -745.402    -138.542     404.787
  O     -744.960    -138.645     403.444
  C     -746.587    -139.472     405.024
  O     -747.523    -139.317     403.914
  C     -746.211    -140.961     405.093
  O     -747.067    -141.593     406.067
  C     -746.558    -141.480     403.714
  O     -746.801    -142.869     403.661
  C     -747.807    -140.633     403.395
  N     -748.095    -140.585     401.966
  C     -749.306    -141.155     401.544
  O     -750.162    -141.611     402.284
  N     -749.491    -141.178     400.181
  C     -748.614    -140.729     399.236
  O     -748.839    -140.790     398.028
  C     -747.368    -140.148     399.749
  C     -747.163    -140.110     401.066
  O     -743.332    -138.465     401.534
  O     -742.916    -137.037     403.633
  H     -742.540    -137.996     401.194
  H     -746.099    -143.315     404.181
  H     -750.351    -141.586     399.856
  H     -746.636    -139.793     399.027
  H     -746.248    -139.702     401.470
  H     -748.669    -141.026     403.940
  H     -745.742    -141.243     403.017
  H     -745.166    -141.144     405.362
  H     -747.119    -139.153     405.935
  H     -745.710    -137.503     404.993
  H     -744.573    -138.799     405.464
  P     -746.397    -142.677     407.040
  C     -748.169    -144.597     407.192
  O     -747.621    -143.422     407.754
  O     -745.776    -141.729     408.168
  O     -745.414    -143.555     406.351
  H     -746.324    -140.946     408.354
  H     -748.972    -144.946     407.807
  H     -747.412    -145.351     407.133
  H     -748.538    -144.384     406.210

 6  7  8  9  10  11  12  13  14  15  16  27  31  32  33  34  35 0
 6-311+G(2d,p)
 ****
 36  37 0
 6-311+G(2d,p)
 ****
 1  2  3  4  5  17  18  19  20  21  22  23  24  25 0
 3-21G
 ****
 26  28  29  30  38  39  40  41  42  43  44  45 0
 3-21G
 ****


