%nproc=1
%NoSave
%Mem=1900MB
#P OB98/GEN NMR

erre ene a

0 1
  C       58.658     -17.228     -97.876
  O       58.118     -17.679     -96.651
  H       59.732     -17.064     -97.747
  H       58.193     -16.281     -98.163
  H       58.511     -17.968     -98.668
  P       56.620     -18.250     -96.629
  C       55.588     -15.958     -97.207
  O       55.756     -17.312     -97.603
  C       54.573     -15.252     -98.111
  O       55.112     -15.207     -99.468
  C       53.202     -15.958     -98.187
  O       52.209     -14.941     -98.373
  C       53.373     -16.791     -99.444
  O       52.147     -17.289     -99.913
  C       54.109     -15.783    -100.330
  N       54.705     -16.376    -101.520
  C       53.922     -16.429    -102.669
  O       52.777     -15.987    -102.740
  N       54.502     -17.029    -103.756
  C       55.753     -17.570    -103.801
  O       56.231     -18.075    -104.811
  C       56.521     -17.509    -102.547
  C       55.971     -16.924    -101.481
  O       56.030     -18.470     -95.277
  O       56.727     -19.619     -97.455
  H       56.806     -20.369     -96.835
  H       51.734     -17.872     -99.241
  H       53.948     -17.076    -104.598
  H       57.509     -17.949    -102.544
  H       56.507     -16.863    -100.539
  H       53.438     -14.970    -100.630
  H       54.007     -17.660     -99.239
  H       52.970     -16.537     -97.290
  H       54.464     -14.212     -97.778
  H       56.559     -15.457     -97.278
  H       55.246     -15.927     -96.167
  P       51.297     -14.371     -97.180
  C       49.182     -15.528     -98.099
  O       50.028     -15.334     -96.974
  O       50.926     -12.932     -97.346
  O       52.157     -14.579     -95.847
  H       51.994     -13.834     -95.239
  H       48.380     -16.185     -97.833
  H       49.746     -15.960     -98.899
  H       48.783     -14.586     -98.412

 6  7  8  9  10  11  12  13  14  15  16  27  31  32  33  34  35 0
 6-311+G(2d,p)
 ****
 36  37 0
 6-311+G(2d,p)
 ****
 1  2  3  4  5  17  18  19  20  21  22  23  24  25 0
 3-21G
 ****
 26  28  29  30  38  39  40  41  42  43  44  45 0
 3-21G
 ****


