%nproc=1
%NoSave
%Mem=1900MB
#P OB98/GEN NMR

erre ene a

0 1
  C      -22.445     232.150     -39.404
  O      -21.925     232.142     -38.089
  H      -23.377     232.723     -39.407
  H      -22.657     231.134     -39.746
  H      -21.738     232.632     -40.083
  P      -20.715     231.139     -37.762
  C      -19.006     233.030     -38.156
  O      -19.445     231.733     -38.550
  C      -17.828     233.498     -39.008
  O      -17.462     234.855     -38.674
  C      -16.554     232.692     -38.805
  O      -16.624     231.357     -39.250
  C      -15.501     233.619     -39.390
  O      -15.410     233.514     -40.810
  C      -16.062     235.008     -38.997
  N      -15.320     235.615     -37.897
  C      -14.489     236.677     -38.236
  O      -14.347     237.089     -39.388
  N      -13.789     237.238     -37.204
  C      -13.804     236.819     -35.906
  O      -13.135     237.354     -35.029
  C      -14.671     235.667     -35.615
  C      -15.381     235.126     -36.609
  O      -20.980     229.690     -38.043
  O      -20.366     231.444     -36.231
  H      -16.255     233.840     -41.174
  H      -19.808     230.728     -35.843
  H      -13.193     238.021     -37.425
  H      -14.699     235.299     -34.599
  H      -16.031     234.275     -36.418
  H      -16.015     235.692     -39.854
  H      -14.506     233.418     -38.987
  H      -16.352     232.636     -37.727
  H      -18.141     233.488     -40.057
  H      -18.694     232.972     -37.108
  H      -19.838     233.737     -38.239
  P      -15.538     230.245     -38.892
  C      -17.181     229.264     -37.111
  O      -15.857     229.675     -37.428
  O      -14.119     230.562     -39.229
  O      -16.004     229.021     -39.837
  H      -15.194     228.548     -40.114
  H      -17.213     228.914     -36.101
  H      -17.478     228.476     -37.771
  H      -17.848     230.093     -37.223

 6  7  8  9  10  11  12  13  14  15  16  26  31  32  33  34  35 0
 6-311+G(2d,p)
 ****
 36  37 0
 6-311+G(2d,p)
 ****
 1  2  3  4  5  17  18  19  20  21  22  23  24  25 0
 3-21G
 ****
 27  28  29  30  38  39  40  41  42  43  44  45 0
 3-21G
 ****


