%nproc=1
%NoSave
%Mem=1900MB
#P OB98/GEN NMR

erre ene a

0 1
  C     -445.811    -639.895    -643.200
  O     -446.796    -640.882    -642.967
  P     -448.351    -640.573    -643.197
  C     -448.684    -641.569    -645.539
  O     -448.587    -640.377    -644.772
  C     -449.662    -641.403    -646.696
  O     -451.018    -641.337    -646.184
  C     -449.418    -640.149    -647.549
  O     -449.670    -640.515    -648.921
  C     -450.474    -639.181    -647.054
  O     -450.768    -638.173    -647.996
  C     -451.619    -640.153    -646.744
  N     -452.602    -639.581    -645.834
  C     -453.433    -640.469    -645.161
  O     -453.408    -641.678    -645.435
  N     -454.282    -639.982    -644.202
  C     -454.431    -638.691    -644.073
  N     -455.229    -638.251    -643.073
  C     -453.747    -637.718    -644.948
  C     -452.830    -638.225    -645.774
  O     -448.912    -639.485    -642.346
  O     -449.074    -641.969    -642.899
  H     -449.781    -641.826    -642.233
  H     -450.850    -638.587    -648.887
  H     -453.995    -636.671    -644.891
  H     -452.261    -637.577    -646.439
  H     -452.133    -640.447    -647.671
  H     -450.118    -638.699    -646.137
  H     -448.399    -639.775    -647.465
  H     -449.602    -642.306    -647.323
  H     -455.647    -638.943    -642.463
  H     -449.045    -642.367    -644.876
  H     -455.151    -637.306    -642.694
  H     -447.693    -641.860    -645.907
  P     -448.669    -639.960    -650.045
  C     -447.362    -641.993    -650.986
  O     -447.385    -640.912    -650.081
  O     -448.096    -638.634    -649.348
  O     -449.283    -639.606    -651.358
  H     -447.807    -638.003    -650.036
  H     -446.450    -642.566    -650.817
  H     -447.365    -641.629    -652.014
  H     -448.216    -642.653    -650.815
  H     -444.843    -640.300    -642.989
  H     -445.992    -639.053    -642.564
  H     -445.852    -639.585    -644.223

 3  4  5  6  7  8  9  10  11  12  13  24  27  28  29  30  32 0
 6-311+G(2d,p)
 ****
 34  35 0
 6-311+G(2d,p)
 ****
 1  2  14  15  16  17  18  19  20  21  22  23  25  26 0
 3-21G
 ****
 31  33  36  37  38  39  40  41  42  43  44  45  46 0
 3-21G
 ****


