%nproc=1
%NoSave
%Mem=1900MB
#P OB98/GEN NMR

erre ene a

0 1
  C      -35.570     132.723    -284.707
  O      -35.722     132.905    -286.099
  H      -34.505     132.758    -284.465
  H      -35.963     131.748    -284.406
  H      -36.080     133.516    -284.153
  P      -37.201     133.028    -286.706
  C      -38.802     131.085    -287.249
  O      -37.998     131.711    -286.258
  C      -39.566     129.914    -286.634
  O      -38.662     128.831    -286.326
  C      -40.268     130.255    -285.325
  O      -41.439     131.012    -285.562
  C      -40.499     128.861    -284.762
  O      -41.633     128.236    -285.382
  C      -39.192     128.140    -285.172
  N      -38.209     128.088    -284.089
  C      -38.319     127.014    -283.212
  O      -39.184     126.147    -283.314
  N      -37.421     126.995    -282.177
  C      -36.510     127.972    -281.895
  O      -35.879     128.023    -280.843
  C      -36.388     129.041    -282.897
  C      -37.240     129.060    -283.924
  O      -37.279     133.350    -288.160
  O      -37.878     134.175    -285.815
  H      -37.872     135.014    -286.311
  H      -41.450     128.218    -286.342
  H      -37.522     126.246    -281.508
  H      -35.633     129.803    -282.741
  H      -37.190     129.857    -284.658
  H      -39.406     127.111    -285.489
  H      -40.687     128.871    -283.688
  H      -39.583     130.795    -284.660
  H      -40.287     129.549    -287.377
  H      -38.149     130.713    -288.045
  H      -39.493     131.822    -287.669
  P      -41.712     132.380    -284.781
  C      -42.539     133.101    -282.465
  O      -42.060     132.023    -283.258
  O      -42.685     133.301    -285.439
  O      -40.267     133.064    -284.670
  H      -40.316     133.976    -285.021
  H      -42.738     132.753    -281.473
  H      -43.439     133.488    -282.895
  H      -41.800     133.874    -282.430

 6  7  8  9  10  11  12  13  14  15  16  27  31  32  33  34  35 0
 6-311+G(2d,p)
 ****
 36  37 0
 6-311+G(2d,p)
 ****
 1  2  3  4  5  17  18  19  20  21  22  23  24  25 0
 3-21G
 ****
 26  28  29  30  38  39  40  41  42  43  44  45 0
 3-21G
 ****


