%nproc=1
%NoSave
%Mem=1900MB
#P OB98/GEN NMR

erre ene a

0 1
  C     -580.067     504.385     131.518
  O     -581.214     504.775     132.254
  H     -580.386     504.046     130.525
  H     -579.543     503.566     132.015
  H     -579.396     505.240     131.396
  P     -581.040     505.064     133.824
  C     -581.259     502.533     134.307
  O     -580.455     503.706     134.451
  C     -581.092     501.600     135.512
  O     -579.688     501.406     135.794
  C     -581.689     502.148     136.801
  O     -583.096     502.203     136.808
  C     -580.960     501.342     137.866
  O     -581.576     500.085     138.150
  C     -579.579     501.106     137.201
  N     -578.524     501.887     137.839
  C     -577.548     501.158     138.508
  O     -577.556     499.926     138.592
  N     -576.565     501.889     139.122
  C     -576.505     503.255     139.173
  O     -575.617     503.852     139.779
  C     -577.578     503.972     138.473
  C     -578.529     503.266     137.852
  O     -582.261     505.578     134.532
  O     -579.786     506.058     133.887
  H     -581.136     499.727     138.945
  H     -579.747     506.520     134.765
  H     -575.843     501.377     139.602
  H     -577.561     505.059     138.497
  H     -579.334     503.781     137.321
  H     -579.297     500.048     137.273
  H     -580.896     501.890     138.808
  H     -581.343     503.186     136.918
  H     -581.528     500.625     135.259
  H     -580.927     502.010     133.400
  H     -582.310     502.823     134.191
  P     -583.924     503.397     137.476
  C     -584.264     502.989     140.026
  O     -583.443     503.555     139.005
  O     -585.394     503.453     137.181
  O     -583.238     504.685     136.776
  H     -583.939     505.356     136.666
  H     -583.820     503.172     140.982
  H     -584.352     501.934     139.869
  H     -585.235     503.437     139.992

 6  7  8  9  10  11  12  13  14  15  16  26  31  32  33  34  35 0
 6-311+G(2d,p)
 ****
 36  37 0
 6-311+G(2d,p)
 ****
 1  2  3  4  5  17  18  19  20  21  22  23  24  25 0
 3-21G
 ****
 27  28  29  30  38  39  40  41  42  43  44  45 0
 3-21G
 ****


