%nproc=1
%NoSave
%Mem=1900MB
#P OB98/GEN NMR

erre ene a

0 1
  C     1200.858    -374.488    1188.729
  O     1201.021    -375.616    1189.556
  H     1200.452    -374.806    1187.764
  H     1201.829    -374.002    1188.556
  H     1200.166    -373.775    1189.191
  P     1201.711    -375.383    1190.982
  C     1199.475    -375.149    1192.287
  O     1200.681    -374.523    1191.862
  C     1199.526    -375.403    1193.792
  O     1199.748    -374.133    1194.503
  C     1198.267    -375.979    1194.393
  O     1198.145    -377.378    1194.158
  C     1198.432    -375.646    1195.867
  O     1199.229    -376.629    1196.535
  C     1199.154    -374.280    1195.817
  N     1198.249    -373.178    1196.131
  C     1198.040    -372.949    1197.479
  O     1198.572    -373.625    1198.379
  N     1197.155    -371.941    1197.783
  C     1196.458    -371.191    1196.883
  O     1195.625    -370.351    1197.236
  C     1196.711    -371.493    1195.466
  C     1197.565    -372.466    1195.148
  O     1202.889    -374.345    1190.664
  O     1202.220    -376.618    1191.650
  H     1203.750    -374.808    1190.681
  H     1200.159    -376.422    1196.304
  H     1197.001    -371.759    1198.761
  H     1196.157    -370.936    1194.734
  H     1197.762    -372.701    1194.116
  H     1199.986    -374.256    1196.528
  H     1197.475    -375.598    1196.364
  H     1197.379    -375.444    1193.995
  H     1200.393    -376.054    1194.015
  H     1199.338    -376.120    1191.782
  H     1198.618    -374.509    1192.031
  P     1196.760    -377.923    1193.555
  C     1197.315    -377.547    1190.999
  O     1196.569    -377.164    1192.140
  O     1195.696    -377.228    1194.530
  O     1196.694    -379.417    1193.490
  H     1196.043    -376.396    1194.927
  H     1197.044    -376.926    1190.171
  H     1197.105    -378.569    1190.762
  H     1198.360    -377.435    1191.202

 6  7  8  9  10  11  12  13  14  15  16  27  31  32  33  34  35 0
 6-311+G(2d,p)
 ****
 36  37 0
 6-311+G(2d,p)
 ****
 1  2  3  4  5  17  18  19  20  21  22  23  24  25 0
 3-21G
 ****
 26  28  29  30  38  39  40  41  42  43  44  45 0
 3-21G
 ****


