%nproc=1
%NoSave
%Mem=1900MB
#P OB98/GEN NMR

erre ene a

0 1
  C     -603.757     539.535     489.554
  O     -603.069     540.474     490.365
  P     -603.324     540.517     491.950
  C     -602.146     541.686     493.922
  O     -602.038     541.261     492.562
  C     -600.764     542.034     494.487
  O     -599.830     540.957     494.242
  C     -600.131     543.279     493.887
  O     -600.716     544.453     494.418
  C     -598.675     543.077     494.250
  O     -598.406     543.502     495.586
  C     -598.516     541.539     494.123
  N     -597.858     541.145     492.881
  C     -596.624     540.511     493.025
  O     -596.138     540.331     494.140
  N     -595.947     540.111     491.887
  C     -596.447     540.379     490.721
  N     -595.727     539.974     489.633
  C     -597.734     541.082     490.528
  C     -598.367     541.433     491.640
  O     -603.675     539.212     492.579
  O     -604.472     541.622     492.094
  H     -598.499     544.481     495.586
  H     -605.354     541.269     491.805
  H     -598.115     541.276     489.537
  H     -599.324     541.961     491.594
  H     -597.921     541.149     494.957
  H     -598.000     543.639     493.586
  H     -600.238     543.259     492.787
  H     -600.865     542.155     495.579
  H     -594.841     539.522     489.811
  H     -602.574     540.869     494.509
  H     -596.009     540.158     488.685
  H     -602.819     542.550     493.977
  P     -600.583     545.844     493.646
  C     -601.882     548.066     493.624
  O     -601.948     546.659     493.870
  O     -600.131     545.745     492.220
  O     -599.519     546.659     494.524
  H     -598.879     547.093     493.920
  H     -602.907     548.433     493.491
  H     -601.301     548.280     492.742
  H     -601.435     548.552     494.487
  H     -603.458     539.658     488.534
  H     -604.811     539.696     489.639
  H     -603.520     538.543     489.878

 3  4  5  6  7  8  9  10  11  12  13  23  27  28  29  30  32 0
 6-311+G(2d,p)
 ****
 34  35 0
 6-311+G(2d,p)
 ****
 1  2  14  15  16  17  18  19  20  21  22  24  25  26 0
 3-21G
 ****
 31  33  36  37  38  39  40  41  42  43  44  45  46 0
 3-21G
 ****


