%nproc=1
%NoSave
%Mem=1900MB
#P OB98/GEN NMR

erre ene a

0 1
  C      439.822     388.468    -143.633
  O      439.930     387.170    -144.193
  H      439.783     389.199    -144.445
  H      440.697     388.677    -143.011
  H      438.910     388.553    -143.037
  P      439.766     385.943    -143.179
  C      441.900     384.439    -143.448
  O      440.547     384.690    -143.816
  C      442.511     383.394    -144.377
  O      441.817     382.136    -144.261
  C      442.399     383.731    -145.854
  O      443.273     384.766    -146.244
  C      442.739     382.382    -146.477
  O      444.155     382.195    -146.594
  C      442.131     381.388    -145.459
  N      440.975     380.697    -146.004
  C      441.243     379.833    -147.072
  O      442.399     379.687    -147.475
  N      440.195     379.193    -147.680
  C      438.982     379.414    -147.273
  N      437.982     378.771    -147.938
  C      438.656     380.319    -146.151
  C      439.692     380.923    -145.568
  O      438.227     385.545    -143.363
  O      440.158     386.238    -141.771
  H      444.489     382.953    -147.120
  H      437.957     385.447    -144.290
  H      437.630     380.461    -145.843
  H      439.545     381.604    -144.737
  H      442.876     380.634    -145.170
  H      442.324     382.288    -147.486
  H      441.356     383.970    -146.110
  H      443.556     383.243    -144.079
  H      438.244     378.204    -148.734
  H      441.959     384.103    -142.407
  H      437.000     378.929    -147.760
  H      442.446     385.385    -143.523
  P      442.845     385.849    -147.346
  C      444.761     384.862    -148.763
  O      444.112     386.049    -148.314
  O      442.272     387.116    -146.811
  O      441.835     385.027    -148.287
  H      442.223     384.241    -148.708
  H      445.583     385.123    -149.396
  H      444.066     384.261    -149.311
  H      445.121     384.311    -147.919

 6  7  8  9  10  11  12  13  14  15  16  26  30  31  32  33  35 0
 6-311+G(2d,p)
 ****
 37  38 0
 6-311+G(2d,p)
 ****
 1  2  3  4  5  17  18  19  20  21  22  23  24  25 0
 3-21G
 ****
 27  28  29  34  36  39  40  41  42  43  44  45  46 0
 3-21G
 ****


