%nproc=1
%NoSave
%Mem=1900MB
#P OB98/GEN NMR

erre ene a

0 1
  C     -433.230    -862.803      60.207
  O     -431.805    -862.815      60.021
  P     -430.900    -862.174      61.170
  C     -428.693    -861.312      60.104
  O     -429.345    -862.400      60.791
  C     -427.192    -861.589      59.924
  O     -426.559    -861.623      61.235
  C     -426.878    -862.965      59.298
  O     -426.786    -863.056      57.878
  C     -425.462    -863.214      59.846
  O     -424.484    -862.529      59.009
  C     -425.491    -862.597      61.226
  N     -423.848    -864.196      65.818
  C     -423.448    -863.175      65.005
  N     -423.952    -862.827      63.803
  C     -424.956    -863.616      63.457
  C     -425.495    -864.680      64.162
  C     -424.885    -864.968      65.407
  N     -425.302    -866.004      66.218
  N     -426.531    -865.267      63.482
  C     -426.609    -864.582      62.349
  N     -425.697    -863.563      62.287
  O     -431.250    -862.513      62.571
  O     -431.074    -860.585      60.905
  H     -423.618    -862.674      59.439
  H     -431.095    -860.128      61.772
  H     -422.620    -862.571      65.377
  H     -427.325    -864.790      61.571
  H     -424.565    -862.051      61.465
  H     -425.192    -864.281      59.824
  H     -427.548    -863.744      59.673
  H     -426.739    -860.802      59.346
  H     -428.820    -860.386      60.687
  H     -424.785    -866.162      67.072
  H     -426.032    -866.610      65.917
  H     -429.210    -861.164      59.150
  P     -426.812    -864.485      57.127
  C     -425.314    -863.293      55.330
  O     -426.373    -864.166      55.615
  O     -428.080    -865.253      57.261
  O     -425.517    -865.205      57.737
  H     -424.674    -864.818      57.457
  H     -425.018    -863.390      54.293
  H     -424.445    -863.543      55.958
  H     -425.615    -862.256      55.534
  H     -433.704    -863.262      59.364
  H     -433.569    -861.792      60.300
  H     -433.478    -863.346      61.095

 3  4  5  6  7  8  9  10  11  12  22  25  29  30  31  32 0
 6-311+G(2d,p)
 ****
 33  36  37 0
 6-311+G(2d,p)
 ****
 1  2  13  14  15  16  17  18  19  20  21  23  24  26 0
 3-21G
 ****
 27  28  34  35  38  39  40  41  42  43  44  45  46  47  48 0
 3-21G
 ****


