%nproc=1
%NoSave
%Mem=1900MB
#P OB98/GEN NMR

erre ene a

0 1
  C      246.594     233.902     119.567
  O      247.838     233.342     119.989
  P      248.231     231.862     119.517
  C      248.430     231.148     121.987
  O      249.032     231.134     120.701
  C      249.495     231.196     123.095
  O      250.182     229.916     123.174
  C      250.553     232.287     122.865
  O      250.749     233.125     124.001
  C      251.767     231.506     122.398
  O      252.989     232.195     122.621
  C      251.598     230.155     123.104
  N      252.311     229.079     122.409
  C      253.587     228.778     122.865
  O      254.152     229.418     123.754
  N      254.229     227.753     122.227
  C      253.757     227.066     121.147
  O      254.390     226.187     120.577
  C      252.425     227.472     120.665
  C      251.774     228.445     121.307
  O      248.862     231.755     118.170
  O      246.818     231.093     119.541
  H      253.730     231.602     122.359
  H      246.794     230.488     118.775
  H      255.150     227.510     122.559
  H      252.030     226.967     119.796
  H      250.802     228.771     120.970
  H      251.989     230.199     124.127
  H      251.681     231.349     121.314
  H      250.243     232.979     122.074
  H      248.972     231.367     124.040
  H      247.827     230.248     122.115
  H      247.737     231.993     122.055
  P      250.009     234.524     124.235
  C      252.219     235.700     124.905
  O      250.884     235.393     125.255
  O      248.554     234.442     124.567
  O      250.214     235.279     122.835
  H      249.395     235.754     122.605
  H      252.769     235.953     125.814
  H      252.230     236.565     124.236
  H      252.709     234.855     124.419
  H      246.492     234.888     119.969
  H      245.790     233.289     119.917
  H      246.568     233.948     118.498

 3  4  5  6  7  8  9  10  11  12  13  23  28  29  30  31  32 0
 6-311+G(2d,p)
 ****
 33  34 0
 6-311+G(2d,p)
 ****
 1  2  14  15  16  17  18  19  20  21  22  24  25  26  27 0
 3-21G
 ****
 35  36  37  38  39  40  41  42  43  44  45 0
 3-21G
 ****


