%nproc=1
%NoSave
%Mem=1900MB
#P OB98/GEN NMR

erre ene a

0 1
  C     -467.406    -761.089     366.238
  O     -467.537    -760.202     367.335
  H     -466.340    -761.260     366.050
  H     -467.856    -760.650     365.342
  H     -467.883    -762.045     366.465
  P     -469.036    -759.836     367.775
  C     -469.024    -761.165     370.021
  O     -469.048    -759.899     369.379
  C     -468.168    -761.104     371.292
  O     -466.761    -761.105     370.907
  C     -468.396    -759.841     372.137
  O     -468.120    -760.175     373.509
  C     -467.309    -758.916     371.606
  O     -467.122    -757.814     372.465
  C     -466.165    -759.922     371.480
  N     -462.655    -756.259     370.831
  C     -463.566    -756.475     371.810
  N     -464.452    -757.474     371.918
  C     -464.339    -758.337     370.888
  C     -463.458    -758.257     369.825
  C     -462.579    -757.159     369.814
  N     -461.659    -756.932     368.816
  N     -463.637    -759.322     368.962
  C     -464.608    -760.030     369.496
  N     -465.069    -759.463     370.656
  O     -469.872    -761.126     367.336
  O     -469.590    -758.579     367.191
  H     -467.910    -757.230     372.460
  H     -470.272    -760.983     366.462
  H     -463.579    -755.732     372.605
  H     -465.020    -760.944     369.090
  H     -465.753    -760.191     372.461
  H     -467.582    -758.510     370.629
  H     -469.410    -759.440     372.053
  H     -468.335    -762.014     371.876
  H     -468.604    -761.899     369.324
  H     -470.042    -761.460     370.284
  H     -461.084    -756.111     368.875
  H     -461.611    -757.583     368.047
  P     -468.766    -759.275     374.672
  C     -469.750    -761.130     376.237
  O     -468.769    -760.117     376.039
  O     -470.320    -759.275     374.281
  O     -468.249    -757.872     374.771
  H     -470.747    -758.453     374.605
  H     -469.604    -761.585     377.194
  H     -469.656    -761.872     375.471
  H     -470.726    -760.694     376.194

 6  7  8  9  10  11  12  13  14  15  25  28  32  33  34  35 0
 6-311+G(2d,p)
 ****
 36  37  40 0
 6-311+G(2d,p)
 ****
 1  2  3  4  5  16  17  18  19  20  21  22  23  24 0
 3-21G
 ****
 26  27  29  30  31  38  39 41  42  43  44  45  46  47  48 0
 3-21G
 ****


