%nproc=1
%NoSave
%Mem=1900MB
#P OB98/GEN NMR

erre ene a

0 1
  C       36.755      71.776       6.887
  O       37.988      71.222       7.313
  P       37.995      70.322       8.638
  C       36.946      68.040       9.294
  O       36.857      69.201       8.481
  C       35.556      67.473       9.588
  O       34.840      68.375      10.474
  C       34.693      67.287       8.336
  O       33.848      66.140       8.508
  C       33.800      68.510       8.337
  O       32.601      68.284       7.597
  C       33.590      68.710       9.838
  N       30.039      71.535      12.059
  C       30.260      70.176      12.148
  N       29.357      69.464      12.856
  N       31.277      69.568      11.596
  C       32.095      70.407      10.913
  C       31.989      71.772      10.767
  C       30.852      72.428      11.373
  O       30.584      73.623      11.309
  N       33.029      72.279      10.034
  C       33.742      71.223       9.697
  N       33.195      70.060      10.176
  O       37.396      71.312       9.745
  O       39.339      69.820       9.043
  H       32.420      67.326       7.637
  H       38.111      71.627      10.329
  H       29.233      71.955      12.494
  H       34.638      71.240       9.092
  H       32.827      68.027      10.231
  H       34.325      69.360       7.887
  H       28.517      69.862      13.249
  H       35.260      67.184       7.405
  H       29.471      68.460      12.899
  H       35.671      66.524      10.122
  H       37.430      68.301      10.236
  H       37.561      67.286       8.791
  P       33.332      65.438       7.158
  C       34.594      64.051       5.354
  O       34.648      65.078       6.323
  O       32.680      66.648       6.341
  O       32.373      64.317       7.380
  H       32.002      66.313       5.724
  H       34.791      64.483       4.368
  H       33.622      63.551       5.334
  H       35.366      63.310       5.578
  H       36.910      72.347       5.996
  H       36.365      72.411       7.655
  H       36.059      70.988       6.689

 3  4  5  6  7  8  9  10  11  12  23  26  30  31 0
 6-311+G(2d,p)
 ****
 33  35  36  37  38 0
 6-311+G(2d,p)
 ****
 1  2  13  14  15  16  17  18  19  20  21  22  24  25 0
 3-21G
 ****
 27  28  29  32  34  39  40  41  42  43  44  45  46  47  48  49 0
 3-21G
 ****


