%nproc=1
%NoSave
%Mem=1900MB
#P OB98/GEN NMR

erre ene a

0 1
  C     -256.653      50.256    -202.066
  O     -256.781      50.982    -203.292
  P     -256.159      52.464    -203.314
  C     -258.313      53.813    -202.825
  O     -257.037      53.408    -202.361
  C     -259.253      54.193    -201.672
  O     -260.467      54.812    -202.168
  C     -259.690      52.986    -200.827
  O     -259.829      53.454    -199.471
  C     -261.056      52.653    -201.366
  O     -261.826      51.893    -200.434
  C     -261.595      54.059    -201.673
  N     -262.707      54.057    -202.627
  C     -264.002      54.053    -202.094
  O     -264.170      53.980    -200.871
  N     -265.075      54.088    -202.954
  C     -264.875      54.081    -204.232
  N     -265.980      54.113    -205.033
  C     -263.535      54.023    -204.836
  C     -262.511      54.020    -203.984
  O     -256.503      52.987    -204.793
  O     -254.681      52.497    -203.058
  H     -262.753      51.852    -200.766
  H     -255.701      53.350    -205.212
  H     -263.415      53.995    -205.920
  H     -261.486      53.981    -204.335
  H     -261.943      54.550    -200.756
  H     -260.960      52.069    -202.299
  H     -258.974      52.155    -200.854
  H     -258.741      54.926    -201.040
  H     -266.888      54.162    -204.578
  H     -258.772      53.006    -203.407
  H     -265.944      54.107    -206.040
  H     -258.190      54.659    -203.519
  P     -258.660      53.115    -198.422
  C     -259.271      50.665    -197.907
  O     -258.394      51.539    -198.600
  O     -259.460      53.145    -197.031
  O     -257.465      54.006    -198.384
  H     -258.847      53.027    -196.290
  H     -259.053      49.643    -198.211
  H     -260.310      50.897    -198.158
  H     -259.116      50.761    -196.832
  H     -257.102      49.291    -202.175
  H     -257.145      50.792    -201.281
  H     -255.617      50.142    -201.825

 3  4  5  6  7  8  9  10  11  12  13  21  23  27  28  29  30  32 0
 6-311+G(2d,p)
 ****
 34  35 0
 6-311+G(2d,p)
 ****
 1  2  14  15  16  17  18  19  20  22  24  25  26 0
 3-21G
 ****
 31  33  36  37  38  39  40  41  42  43  44  45  46 0
 3-21G
 ****


