%nproc=1
%NoSave
%Mem=1900MB
#P OB98/GEN NMR

erre ene a

0 1
  C     -424.981      -9.975     248.535
  O     -425.646      -9.193     247.564
  H     -424.093      -9.436     248.877
  H     -424.667     -10.931     248.104
  H     -425.640     -10.150     249.392
  P     -426.925      -9.848     246.855
  C     -425.835     -10.137     244.511
  O     -426.374     -10.771     245.663
  C     -425.373     -11.198     243.510
  O     -424.175     -11.845     244.004
  C     -426.376     -12.320     243.289
  O     -427.429     -11.951     242.413
  C     -425.484     -13.395     242.699
  O     -425.313     -13.228     241.284
  C     -424.156     -13.179     243.450
  N     -423.941     -14.194     244.480
  C     -423.883     -15.512     244.023
  O     -424.001     -15.820     242.836
  N     -423.728     -16.469     244.984
  C     -423.675     -16.251     246.333
  O     -423.591     -17.162     247.148
  C     -423.759     -14.842     246.758
  C     -423.891     -13.893     245.828
  O     -427.597      -8.609     246.095
  O     -427.882     -10.523     247.782
  H     -428.406      -8.336     246.564
  H     -424.750     -13.972     240.991
  H     -423.680     -17.426     244.675
  H     -423.725     -14.636     247.821
  H     -423.968     -12.851     246.115
  H     -423.311     -13.215     242.752
  H     -425.902     -14.386     242.859
  H     -426.772     -12.674     244.255
  H     -425.132     -10.703     242.561
  H     -424.972      -9.522     244.798
  H     -426.599      -9.488     244.067
  P     -428.825     -12.735     242.547
  C     -428.114     -14.587     240.808
  O     -428.514     -14.253     242.133
  O     -429.624     -12.130     241.298
  O     -429.481     -12.544     243.876
  H     -429.019     -11.832     240.590
  H     -427.956     -15.643     240.739
  H     -427.206     -14.074     240.570
  H     -428.879     -14.295     240.120

 6  7  8  9  10  11  12  13  14  15  16  27  31  32  33  34  35 0
 6-311+G(2d,p)
 ****
 36  37 0
 6-311+G(2d,p)
 ****
 1  2  3  4  5  17  18  19  20  21  22  23  24  25 0
 3-21G
 ****
 26  28  29  30  38  39  40  41  42  43  44  45 0
 3-21G
 ****


