%nproc=1
%NoSave
%Mem=1900MB
#P OB98/GEN NMR

erre ene a

0 1
  C      -16.479      80.357     190.407
  O      -17.041      80.353     189.090
  P      -16.586      81.522     188.090
  C      -16.801      84.123     188.334
  O      -17.353      82.838     188.590
  C      -17.913      85.107     187.975
  O      -18.482      84.783     186.683
  C      -19.084      85.104     188.945
  O      -18.755      85.762     190.158
  C      -20.152      85.799     188.110
  O      -19.968      87.222     188.144
  C      -19.849      85.263     186.693
  N      -20.780      84.228     186.261
  C      -22.124      84.593     186.241
  O      -22.525      85.705     186.588
  N      -22.998      83.625     185.828
  C      -22.671      82.349     185.471
  O      -23.500      81.527     185.099
  C      -21.243      82.008     185.559
  C      -20.376      82.948     185.946
  O      -17.349      81.099     186.752
  O      -15.104      81.638     187.965
  H      -18.218      80.696     186.921
  H      -20.239      87.516     189.038
  H      -23.974      83.873     185.794
  H      -20.950      80.996     185.308
  H      -19.317      82.715     186.019
  H      -19.889      86.082     185.964
  H      -21.167      85.592     188.469
  H      -19.392      84.072     189.155
  H      -17.474      86.111     187.916
  H      -16.091      84.065     187.505
  H      -16.252      84.454     189.221
  P      -18.835      84.884     191.503
  C      -20.679      83.339     192.528
  O      -20.344      84.355     191.609
  O      -18.745      86.026     192.623
  O      -17.775      83.837     191.602
  H      -19.303      86.797     192.425
  H      -21.759      83.363     192.699
  H      -20.169      83.477     193.483
  H      -20.412      82.364     192.108
  H      -16.866      79.529     190.963
  H      -16.736      81.270     190.902
  H      -15.414      80.275     190.341

 3  4  5  6  7  8  9  10  11  12  13  24  28  29  30  31  32 0
 6-311+G(2d,p)
 ****
 33  34 0
 6-311+G(2d,p)
 ****
 1  2  14  15  16  17  18  19  20  21  22  23  25  26  27 0
 3-21G
 ****
 35  36  37  38  39  40  41  42  43  44  45 0
 3-21G
 ****


