%nproc=1
%NoSave
%Mem=1900MB
#P OB98/GEN NMR

erre ene a

0 1
  C     -898.988    -565.375    2047.632
  O     -898.128    -565.813    2048.678
  P     -898.018    -567.366    2049.123
  C     -895.428    -567.822    2049.012
  O     -896.718    -567.997    2048.396
  C     -894.578    -566.819    2048.265
  O     -895.158    -565.466    2048.408
  C     -893.158    -566.652    2048.745
  O     -892.308    -567.763    2048.358
  C     -892.748    -565.303    2048.092
  O     -892.308    -565.512    2046.740
  C     -894.078    -564.526    2048.123
  N     -894.058    -563.409    2049.048
  C     -893.718    -562.168    2048.533
  O     -893.378    -562.021    2047.352
  N     -893.768    -561.079    2049.378
  C     -894.028    -561.227    2050.606
  N     -894.088    -560.091    2051.449
  C     -894.278    -562.578    2051.260
  C     -894.268    -563.594    2050.408
  O     -899.248    -568.150    2048.916
  O     -897.598    -567.307    2050.700
  H     -897.908    -568.125    2051.110
  H     -892.318    -564.624    2046.298
  H     -894.458    -562.685    2052.314
  H     -894.438    -564.613    2050.767
  H     -894.288    -564.141    2047.102
  H     -891.898    -564.836    2048.638
  H     -893.128    -566.550    2049.852
  H     -894.588    -567.073    2047.167
  H     -893.928    -559.200    2050.952
  H     -894.908    -568.777    2049.042
  H     -894.308    -560.140    2052.402
  H     -895.598    -567.496    2050.072
  P     -891.938    -568.780    2049.539
  C     -892.418    -571.047    2048.323
  O     -892.808    -570.150    2049.326
  O     -892.558    -568.128    2050.880
  O     -890.448    -569.041    2049.676
  H     -891.948    -568.237    2051.655
  H     -892.738    -572.050    2048.620
  H     -891.318    -571.089    2048.215
  H     -892.858    -570.800    2047.391
  H     -898.895    -564.316    2047.514
  H     -900.000    -565.620    2047.877
  H     -898.714    -565.860    2046.719

 3  4  5  6  7  8  9  10  11  12  13  24  27  28  29  30  32 0
 6-311+G(2d,p)
 ****
 34  35 0
 6-311+G(2d,p)
 ****
 1  2  14  15  16  17  18  19  20  21  22  23  25  26 0
 3-21G
 ****
 31  33  36  37  38  39  40  41  42  43  44  45  46 0
 3-21G
 ****


