%nproc=1
%NoSave
%Mem=1900MB
#P OB98/GEN NMR

erre ene a

0 1
  C      985.676      14.028     282.896
  O      987.061      14.110     282.626
  H      985.123      14.331     282.004
  H      985.415      14.698     283.719
  H      985.395      12.999     283.153
  P      988.062      13.490     283.713
  C      987.784      11.062     284.595
  O      988.055      11.900     283.486
  C      988.241       9.633     284.294
  O      987.513       9.150     283.127
  C      989.741       9.506     283.988
  O      990.208       8.266     284.530
  C      989.775       9.437     282.471
  O      990.942       8.811     281.953
  C      988.489       8.650     282.190
  N      988.027       8.812     280.815
  C      988.144       7.713     279.965
  O      988.534       6.599     280.312
  N      987.793       7.932     278.657
  C      987.372       9.119     278.128
  O      987.094       9.258     276.941
  C      987.276      10.244     279.069
  C      987.602      10.039     280.343
  O      987.262      13.673     285.087
  O      989.425      14.109     283.757
  H      987.471      14.533     285.492
  H      990.840       8.763     280.982
  H      987.876       7.152     278.030
  H      986.951      11.206     278.681
  H      987.565      10.856     281.064
  H      988.641       7.585     282.409
  H      989.715      10.448     282.049
  H      990.346      10.328     284.377
  H      987.963       8.988     285.140
  H      986.707      11.054     284.795
  H      988.301      11.449     285.479
  P      991.480       8.316     285.511
  C      991.919      10.100     287.377
  O      991.008       9.193     286.766
  O      992.461       9.278     284.693
  O      992.026       6.961     285.823
  H      991.989       9.985     284.208
  H      991.436      10.596     288.193
  H      992.237      10.825     286.657
  H      992.769       9.561     287.740

 6  7  8  9  10  11  12  13  14  15  16  27  31  32  33  34  35 0
 6-311+G(2d,p)
 ****
 36  37 0
 6-311+G(2d,p)
 ****
 1  2  3  4  5  17  18  19  20  21  22  23  24  25 0
 3-21G
 ****
 26  28  29  30  38  39  40  41  42  43  44  45 0
 3-21G
 ****


