%nproc=1
%NoSave
%Mem=1900MB
#P OB98/GEN NMR

erre ene a

0 1
  C      208.315    -722.914     509.951
  O      207.435    -723.074     511.045
  H      207.746    -723.058     509.022
  H      209.114    -723.660     509.982
  H      208.746    -721.914     509.942
  P      208.040    -722.922     512.528
  C      206.440    -720.910     512.864
  O      207.783    -721.387     512.944
  C      205.799    -720.918     514.247
  O      206.444    -719.952     515.094
  C      204.308    -720.569     514.224
  O      203.536    -721.714     513.884
  C      204.114    -720.141     515.684
  O      204.063    -721.304     516.525
  C      205.408    -719.348     515.943
  N      202.998    -714.995     516.926
  C      202.763    -716.265     517.418
  N      201.712    -716.407     518.237
  N      203.482    -717.312     517.094
  C      204.461    -717.039     516.198
  C      204.790    -715.821     515.647
  C      204.017    -714.661     516.046
  O      204.204    -713.500     515.655
  N      205.813    -715.934     514.729
  C      206.123    -717.207     514.761
  N      205.334    -717.927     515.639
  O      209.457    -723.372     512.718
  O      207.015    -723.735     513.448
  H      204.860    -721.837     516.310
  H      207.305    -724.658     513.569
  H      202.398    -714.243     517.207
  H      206.919    -717.675     514.194
  H      205.749    -719.436     516.975
  H      203.198    -719.580     515.840
  H      200.968    -715.723     518.287
  H      204.100    -719.710     513.585
  H      201.480    -717.356     518.559
  H      205.974    -721.903     514.697
  H      205.900    -721.569     512.186
  H      206.434    -719.894     512.451
  P      202.249    -721.586     512.919
  C      202.725    -723.689     511.491
  O      202.698    -722.258     511.540
  O      201.718    -720.186     512.790
  O      201.194    -722.634     513.515
  H      200.621    -722.255     514.219
  H      203.040    -724.007     510.519
  H      201.746    -724.071     511.691
  H      203.409    -724.058     512.226

 6  7  8  9  10  11  12  13  14  15  26  29  33  34 0
 6-311+G(2d,p)
 ****
 36  38  39  40  41 0
 6-311+G(2d,p)
 ****
 1  2  3  4  5  16  17  18  19  20  21  22  23  24  25 0
 3-21G
 ****
 27  28  30  31  32  35  37  42  43  44  45  46  47 0
 3-21G
 ****
 48  49 0
 3-21G
 ****


