%nproc=1
%NoSave
%Mem=1900MB
#P OB98/GEN NMR

erre ene a

0 1
  C       37.360     -44.903    -101.820
  O       37.628     -44.430    -103.138
  P       39.084     -43.837    -103.455
  C       38.648     -41.293    -103.453
  O       39.213     -42.399    -102.755
  C       38.469     -40.093    -102.509
  O       37.427     -40.404    -101.546
  C       39.707     -39.733    -101.679
  O       40.648     -38.818    -102.232
  C       39.069     -39.031    -100.482
  O       38.805     -37.654    -100.808
  C       37.750     -39.774    -100.289
  N       37.620     -40.515     -95.228
  C       37.528     -39.397     -95.980
  N       37.574     -39.286     -97.323
  C       37.716     -40.490     -97.897
  C       37.819     -41.716     -97.261
  C       37.769     -41.704     -95.857
  N       37.874     -42.841     -95.090
  N       37.964     -42.732     -98.181
  C       37.967     -42.126     -99.352
  N       37.805     -40.774     -99.235
  O       39.518     -43.900    -104.881
  O       40.032     -44.747    -102.534
  H       38.024     -37.652    -101.393
  H       40.867     -44.920    -103.013
  H       37.406     -38.467     -95.430
  H       38.081     -42.624    -100.304
  H       36.924     -39.098    -100.042
  H       39.723     -39.025     -99.606
  H       40.228     -40.638    -101.344
  H       38.145     -39.222    -103.093
  H       37.680     -41.581    -103.869
  H       37.872     -42.741     -94.088
  H       38.044     -43.730     -95.540
  H       39.301     -41.070    -104.297
  P       42.150     -39.263    -102.564
  C       43.001     -37.354    -100.992
  O       43.040     -38.718    -101.347
  O       42.642     -38.874    -103.915
  O       42.110     -40.840    -102.301
  H       41.994     -41.089    -101.369
  H       43.496     -37.229    -100.024
  H       41.970     -37.003    -100.907
  H       43.535     -36.761    -101.739
  H       36.354     -45.264    -101.768
  H       37.488     -44.103    -101.121
  H       38.037     -45.697    -101.581

 3  4  5  6  7  8  9  10  11  12  22  25  29  30  31  32 0
 6-311+G(2d,p)
 ****
 33  36  37 0
 6-311+G(2d,p)
 ****
 1  2  13  14  15  16  17  18  19  20  21  23  24  26 0
 3-21G
 ****
 27  28  34  35  38  39  40  41  42  43  44  45  46  47  48 0
 3-21G
 ****


