%nproc=1
%NoSave
%Mem=1900MB
#P OB98/GEN NMR

erre ene a

0 1
  C      -73.469    -119.401    -192.859
  O      -73.652    -118.680    -191.657
  H      -72.406    -119.392    -193.116
  H      -74.030    -118.929    -193.669
  H      -73.794    -120.437    -192.735
  P      -75.147    -118.609    -191.080
  C      -74.663    -120.942    -190.039
  O      -75.576    -120.122    -190.757
  C      -75.432    -121.921    -189.157
  O      -74.498    -122.707    -188.382
  C      -76.353    -121.258    -188.140
  O      -77.570    -120.830    -188.726
  C      -76.530    -122.379    -187.125
  O      -77.549    -123.301    -187.531
  C      -75.160    -123.069    -187.150
  N      -73.978    -124.251    -182.335
  C      -74.786    -124.847    -183.239
  N      -75.032    -124.477    -184.514
  C      -74.334    -123.374    -184.829
  C      -73.478    -122.655    -184.012
  C      -73.305    -123.136    -182.705
  N      -72.510    -122.511    -181.774
  N      -72.983    -121.552    -184.680
  C      -73.522    -121.610    -185.882
  N      -74.339    -122.696    -186.016
  O      -76.013    -118.238    -192.376
  O      -75.355    -117.636    -189.969
  H      -77.427    -124.107    -186.993
  H      -76.144    -117.272    -192.415
  H      -75.306    -125.736    -182.891
  H      -73.358    -120.892    -186.676
  H      -75.248    -124.163    -187.140
  H      -76.815    -121.989    -186.148
  H      -75.840    -120.419    -187.655
  H      -75.996    -122.605    -189.805
  H      -74.028    -120.311    -189.408
  H      -74.032    -121.480    -190.755
  H      -72.451    -122.900    -180.847
  H      -72.089    -121.621    -182.006
  P      -78.422    -119.700    -187.979
  C      -77.902    -117.763    -189.635
  O      -77.757    -118.280    -188.322
  O      -78.060    -119.926    -186.437
  O      -79.893    -119.764    -188.222
  H      -78.771    -120.421    -185.989
  H      -77.407    -116.817    -189.703
  H      -78.941    -117.638    -189.856
  H      -77.467    -118.444    -190.337

 6  7  8  9  10  11  12  13  14  15  25  28  32  33  34  35 0
 6-311+G(2d,p)
 ****
 36  37  40 0
 6-311+G(2d,p)
 ****
 1  2  3  4  5  16  17  18  19  20  21  22  23  24 0
 3-21G
 ****
 26  27  29  30  31  38  39 41  42  43  44  45  46  47  48 0
 3-21G
 ****


