%nproc=1
%NoSave
%Mem=1900MB
#P OB98/GEN NMR

erre ene a

0 1
  C     -480.383    -586.819    -316.571
  O     -481.603    -586.683    -315.871
  H     -480.183    -585.886    -317.107
  H     -480.446    -587.637    -317.295
  H     -479.567    -587.005    -315.868
  P     -482.112    -587.969    -315.057
  C     -483.417    -586.896    -313.111
  O     -483.500    -587.501    -314.399
  C     -483.225    -585.385    -313.248
  O     -484.154    -584.888    -314.249
  C     -483.489    -584.614    -311.947
  O     -482.582    -583.513    -311.867
  C     -484.901    -584.089    -312.142
  O     -485.167    -582.943    -311.332
  C     -484.916    -583.826    -313.651
  N     -488.870    -580.792    -314.682
  C     -487.596    -580.526    -314.329
  N     -486.591    -581.403    -314.095
  C     -487.007    -582.662    -314.314
  C     -488.270    -583.091    -314.679
  C     -489.239    -582.082    -314.855
  N     -490.551    -582.341    -315.180
  N     -488.314    -584.464    -314.759
  C     -487.086    -584.866    -314.464
  N     -486.271    -583.810    -314.169
  O     -481.125    -588.560    -314.107
  O     -482.597    -588.939    -316.235
  H     -486.068    -582.620    -311.541
  H     -483.144    -588.458    -316.886
  H     -487.346    -579.477    -314.210
  H     -486.750    -585.899    -314.434
  H     -484.452    -582.867    -313.915
  H     -485.632    -584.861    -311.876
  H     -483.402    -585.232    -311.058
  H     -482.212    -585.193    -313.627
  H     -482.586    -587.325    -312.543
  H     -491.175    -581.559    -315.290
  H     -490.843    -583.295    -315.321
  H     -484.350    -587.114    -312.578
  P     -481.416    -583.549    -310.773
  C     -479.783    -582.118    -312.167
  O     -480.505    -582.232    -310.949
  O     -480.657    -584.828    -310.673
  O     -482.201    -583.236    -309.409
  H     -481.853    -583.823    -308.697
  H     -479.220    -581.208    -312.164
  H     -480.468    -582.111    -312.989
  H     -479.117    -582.949    -312.266

 6  7  8  9  10  11  12  13  14  15  25  28  32  33  34  35 0
 6-311+G(2d,p)
 ****
 36  39  40 0
 6-311+G(2d,p)
 ****
 1  2  3  4  5  16  17  18  19  20  21  22  23  24 0
 3-21G
 ****
 26  27  29  30  31  37  38  41  42  43  44  45  46  47 0
 3-21G
 ****
 48 0
 3-21G
 ****


