%nproc=1
%NoSave
%Mem=1900MB
#P OB98/GEN NMR

erre ene a

0 1
  C       22.294    -174.520    -219.127
  O       21.404    -173.805    -218.294
  P       19.855    -174.212    -218.215
  C       20.145    -175.728    -216.149
  O       19.577    -174.527    -216.664
  C       20.687    -175.510    -214.737
  O       21.822    -174.622    -214.761
  C       19.688    -174.880    -213.778
  O       18.745    -175.839    -213.338
  C       20.615    -174.354    -212.691
  O       20.966    -175.391    -211.761
  C       21.849    -173.911    -213.506
  N       21.897    -172.468    -213.701
  C       22.392    -171.721    -212.626
  O       22.725    -172.279    -211.580
  N       22.449    -170.353    -212.745
  C       22.029    -169.785    -213.831
  N       22.101    -168.427    -213.884
  C       21.471    -170.534    -214.974
  C       21.433    -171.858    -214.841
  O       19.426    -175.271    -219.172
  O       19.103    -172.814    -218.435
  H       21.779    -175.088    -211.309
  H       19.145    -172.526    -219.380
  H       21.121    -170.014    -215.855
  H       21.037    -172.484    -215.632
  H       22.774    -174.217    -212.998
  H       20.155    -173.547    -212.112
  H       19.183    -174.038    -214.268
  H       21.023    -176.481    -214.349
  H       22.461    -167.949    -213.068
  H       20.964    -176.031    -216.808
  H       21.768    -167.883    -214.665
  H       19.387    -176.520    -216.157
  P       17.385    -175.362    -212.639
  C       16.119    -174.414    -214.658
  O       16.213    -175.472    -213.725
  O       17.463    -174.060    -211.913
  O       17.050    -176.557    -211.624
  H       16.776    -176.177    -210.768
  H       15.531    -174.754    -215.515
  H       17.110    -174.108    -215.006
  H       15.614    -173.563    -214.196
  H       23.275    -174.101    -219.043
  H       21.963    -174.454    -220.142
  H       22.318    -175.546    -218.826

 3  4  5  6  7  8  9  10  11  12  13  23  27  28  29  30  32 0
 6-311+G(2d,p)
 ****
 34  35 0
 6-311+G(2d,p)
 ****
 1  2  14  15  16  17  18  19  20  21  22  24  25  26 0
 3-21G
 ****
 31  33  36  37  38  39  40  41  42  43  44  45  46 0
 3-21G
 ****


