%nproc=1
%NoSave
%Mem=1900MB
#P OB98/GEN NMR

erre ene a

0 1
  C      -20.368      36.269     -21.817
  O      -19.936      36.627     -23.111
  H      -20.593      37.185     -21.262
  H      -19.584      35.726     -21.284
  H      -21.275      35.662     -21.871
  P      -19.357      35.486     -24.082
  C      -20.836      35.856     -26.145
  O      -19.553      36.073     -25.571
  C      -21.861      36.862     -25.622
  O      -21.403      38.212     -25.895
  C      -23.253      36.712     -26.247
  O      -24.245      36.752     -25.219
  C      -23.377      37.931     -27.150
  O      -24.734      38.285     -27.393
  C      -22.539      38.955     -26.375
  N      -22.135      40.094     -27.191
  C      -22.989      41.201     -27.186
  O      -24.041      41.169     -26.544
  N      -22.656      42.299     -27.935
  C      -21.590      42.278     -28.670
  N      -21.320      43.396     -29.397
  C      -20.683      41.114     -28.743
  C      -21.009      40.070     -27.982
  O      -19.934      34.128     -23.863
  O      -17.772      35.550     -23.876
  H      -24.751      39.145     -27.868
  H      -17.368      34.699     -24.178
  H      -19.812      41.140     -29.380
  H      -20.397      39.175     -27.965
  H      -23.093      39.332     -25.505
  H      -22.903      37.719     -28.116
  H      -23.376      35.788     -26.808
  H      -21.906      36.772     -24.530
  H      -21.965      44.171     -29.317
  H      -21.155      34.833     -25.914
  H      -20.522      43.489     -30.008
  H      -20.749      35.969     -27.231
  P      -24.722      35.333     -24.641
  C      -25.495      36.441     -22.432
  O      -25.843      35.605     -23.525
  O      -23.453      34.837     -23.800
  O      -25.103      34.351     -25.701
  H      -22.943      34.184     -24.314
  H      -26.333      36.533     -21.772
  H      -25.220      37.409     -22.797
  H      -24.670      36.012     -21.903

 6  7  8  9  10  11  12  13  14  15  16  26  30  31  32  33  35 0
 6-311+G(2d,p)
 ****
 37  38 0
 6-311+G(2d,p)
 ****
 1  2  3  4  5  17  18  19  20  21  22  23  24  25 0
 3-21G
 ****
 27  28  29  34  36  39  40  41  42  43  44  45  46 0
 3-21G
 ****


