%nproc=1
%NoSave
%Mem=1900MB
#P OB98/GEN NMR

erre ene a

0 1
  C       53.656    -157.677    -322.706
  O       54.270    -156.412    -322.890
  H       52.937    -157.839    -323.512
  H       53.128    -157.690    -321.751
  H       54.405    -158.477    -322.732
  P       55.587    -156.112    -322.025
  C       54.058    -154.678    -320.488
  O       55.289    -154.767    -321.194
  C       53.607    -153.222    -320.392
  O       52.346    -153.129    -319.686
  C       54.583    -152.311    -319.651
  O       55.622    -151.851    -320.511
  C       53.656    -151.164    -319.263
  O       53.414    -150.319    -320.412
  C       52.369    -151.912    -318.885
  N       51.862    -150.153    -314.148
  C       52.000    -149.464    -315.345
  N       52.003    -148.113    -315.260
  N       52.117    -150.044    -316.515
  C       52.115    -151.402    -316.436
  C       51.999    -152.195    -315.315
  C       51.850    -151.540    -314.034
  O       51.712    -152.107    -312.952
  N       52.040    -153.522    -315.635
  C       52.204    -153.539    -316.946
  N       52.265    -152.272    -317.481
  O       56.641    -155.643    -323.137
  O       56.107    -157.263    -321.232
  H       54.281    -149.994    -320.716
  H       57.255    -156.380    -323.320
  H       51.786    -149.658    -313.276
  H       52.280    -154.432    -317.551
  H       51.469    -151.340    -319.136
  H       54.077    -150.529    -318.483
  H       51.937    -147.604    -314.392
  H       54.984    -152.781    -318.743
  H       52.101    -147.590    -316.124
  H       53.431    -152.857    -321.412
  H       54.198    -155.083    -319.481
  H       53.305    -155.269    -321.014
  P       57.139    -152.238    -320.131
  C       57.427    -150.193    -318.570
  O       57.883    -150.872    -319.723
  O       57.775    -152.600    -321.557
  O       57.289    -153.366    -319.167
  H       57.966    -153.556    -321.599
  H       58.011    -149.308    -318.423
  H       57.526    -150.832    -317.717
  H       56.399    -149.925    -318.697

 6  7  8  9  10  11  12  13  14  15  26  29  33  34 0
 6-311+G(2d,p)
 ****
 36  38  39  40  41 0
 6-311+G(2d,p)
 ****
 1  2  3  4  5  16  17  18  19  20  21  22  23  24  25 0
 3-21G
 ****
 27  28  30  31  32  35  37  42  43  44  45  46  47 0
 3-21G
 ****
 48  49 0
 3-21G
 ****


