%nproc=1
%NoSave
%Mem=1900MB
#P OB98/GEN NMR

erre ene a

0 1
  C      193.087     182.462    -225.620
  O      193.035     183.290    -224.475
  H      193.605     182.997    -226.417
  H      192.079     182.219    -225.962
  H      193.638     181.542    -225.401
  P      192.313     182.725    -223.161
  C      190.187     181.275    -222.941
  O      190.813     182.364    -223.607
  C      189.011     180.765    -223.764
  O      189.355     180.728    -225.165
  C      188.557     179.354    -223.390
  O      187.729     179.389    -222.238
  C      187.813     178.958    -224.653
  O      186.522     179.600    -224.676
  C      188.721     179.556    -225.747
  N      189.749     175.553    -228.690
  C      188.538     176.154    -228.401
  N      187.441     175.580    -228.938
  N      188.413     177.209    -227.635
  C      189.586     177.631    -227.112
  C      190.848     177.105    -227.311
  C      190.979     175.978    -228.204
  O      192.037     175.424    -228.500
  N      191.787     177.763    -226.556
  C      191.105     178.704    -225.932
  N      189.761     178.657    -226.223
  O      192.386     183.592    -221.939
  O      192.990     181.295    -222.931
  H      186.044     179.291    -223.881
  H      193.754     181.358    -222.328
  H      189.775     174.733    -229.272
  H      191.532     179.445    -225.266
  H      188.151     179.885    -226.624
  H      187.642     177.887    -224.737
  H      187.451     174.630    -229.283
  H      189.411     178.674    -223.262
  H      186.538     175.976    -228.699
  H      188.188     181.483    -223.653
  H      189.847     181.637    -221.965
  H      190.908     180.459    -222.780
  P      187.659     178.135    -221.232
  C      186.702     175.746    -221.467
  O      186.686     177.082    -221.948
  O      187.282     178.478    -219.834
  O      189.087     177.434    -221.360
  H      189.767     177.798    -220.739
  H      186.010     175.156    -222.031
  H      186.421     175.735    -220.435
  H      187.686     175.340    -221.573

 6  7  8  9  10  11  12  13  14  15  26  29  33  34 0
 6-311+G(2d,p)
 ****
 36  38  39  40  41 0
 6-311+G(2d,p)
 ****
 1  2  3  4  5  16  17  18  19  20  21  22  23  24  25 0
 3-21G
 ****
 27  28  30  31  32  35  37  42  43  44  45  46  47 0
 3-21G
 ****
 48  49 0
 3-21G
 ****


