%nproc=1
%NoSave
%Mem=1900MB
#P OB98/GEN NMR

erre ene a

0 1
  C      184.310      75.942    -232.485
  O      184.470      77.239    -233.043
  P      185.819      78.038    -232.692
  C      184.878      79.721    -234.432
  O      185.578      79.538    -233.207
  C      184.408      81.165    -234.570
  O      183.254      81.395    -233.737
  C      185.432      82.207    -234.148
  O      186.381      82.473    -235.168
  C      184.540      83.416    -233.926
  O      184.214      84.023    -235.190
  C      183.290      82.781    -233.306
  N      180.974      84.782    -229.211
  C      180.793      84.982    -230.533
  N      181.458      84.419    -231.563
  C      182.423      83.598    -231.115
  C      182.749      83.326    -229.795
  C      181.967      83.951    -228.811
  N      182.132      83.722    -227.464
  N      183.798      82.436    -229.729
  C      184.097      82.168    -230.982
  N      183.287      82.838    -231.857
  O      186.870      77.450    -233.747
  O      186.292      77.892    -231.287
  H      185.058      84.258    -235.618
  H      187.780      77.572    -233.416
  H      180.004      85.679    -230.800
  H      184.878      81.493    -231.301
  H      182.365      83.253    -233.656
  H      185.014      84.189    -233.314
  H      185.916      81.930    -233.202
  H      184.106      81.324    -235.615
  H      184.008      79.059    -234.448
  H      181.419      84.061    -226.838
  H      182.732      82.956    -227.182
  H      185.538      79.452    -235.263
  P      187.856      82.894    -234.695
  C      188.587      83.039    -237.183
  O      188.487      83.691    -235.932
  O      188.644      81.503    -234.685
  O      187.899      83.582    -233.371
  H      189.392      81.539    -234.060
  H      188.736      83.794    -237.961
  H      187.675      82.478    -237.411
  H      189.444      82.362    -237.180
  H      183.374      75.531    -232.800
  H      184.329      76.008    -231.417
  H      185.107      75.310    -232.817

 3  4  5  6  7  8  9  10  11  12  22  25  29  30  31  32 0
 6-311+G(2d,p)
 ****
 33  36  37 0
 6-311+G(2d,p)
 ****
 1  2  13  14  15  16  17  18  19  20  21  23  24  26 0
 3-21G
 ****
 27  28  34  35  38  39  40  41  42  43  44  45  46  47  48 0
 3-21G
 ****


