%nproc=1
%NoSave
%Mem=1900MB
#P OB98/GEN NMR

erre ene a

0 1
  C      207.279    -161.614     161.802
  O      206.223    -162.359     162.385
  P      205.507    -161.750     163.685
  C      203.274    -162.869     162.858
  O      204.191    -162.636     163.914
  C      202.036    -163.599     163.384
  O      201.437    -162.841     164.456
  C      200.929    -163.791     162.356
  O      201.223    -164.847     161.455
  C      199.728    -164.043     163.260
  O      199.719    -165.408     163.711
  C      200.017    -163.095     164.441
  N      199.256    -161.849     164.379
  C      198.216    -161.717     165.294
  O      197.933    -162.582     166.120
  N      197.497    -160.554     165.215
  C      197.668    -159.565     164.291
  O      196.966    -158.563     164.238
  C      198.760    -159.776     163.329
  C      199.491    -160.888     163.416
  O      204.967    -160.363     163.100
  O      206.420    -161.632     164.857
  H      204.808    -160.412     162.141
  H      198.813    -165.589     164.027
  H      196.752    -160.425     165.883
  H      198.921    -159.016     162.575
  H      200.293    -161.065     162.710
  H      199.786    -163.592     165.391
  H      198.774    -163.859     162.754
  H      200.776    -162.861     161.795
  H      202.356    -164.567     163.790
  H      203.760    -163.477     162.091
  H      202.992    -161.908     162.414
  P      200.574    -164.739     159.986
  C      202.471    -166.423     159.360
  O      201.150    -165.978     159.151
  O      201.349    -163.470     159.396
  O      199.087    -164.606     159.997
  H      202.297    -163.471     159.613
  H      202.559    -167.449     158.992
  H      202.737    -166.404     160.419
  H      203.163    -165.789     158.799
  H      207.658    -162.139     160.950
  H      208.063    -161.485     162.519
  H      206.913    -160.656     161.497

 3  4  5  6  7  8  9  10  11  12  13  24  28  29  30  31  32 0
 6-311+G(2d,p)
 ****
 33  34 0
 6-311+G(2d,p)
 ****
 1  2  14  15  16  17  18  19  20  21  22  23  25  26  27 0
 3-21G
 ****
 35  36  37  38  39  40  41  42  43  44  45 0
 3-21G
 ****


