%nproc=1
%NoSave
%Mem=1900MB
#P OB98/GEN NMR

erre ene a

0 1
  C      178.963     675.729     515.571
  O      179.479     675.755     516.889
  H      179.801     675.627     514.872
  H      178.440     676.661     515.350
  H      178.292     674.878     515.442
  P      178.462     675.974     518.106
  C      178.710     673.727     519.364
  O      177.907     674.526     518.504
  C      178.199     673.805     520.804
  O      176.810     673.408     520.859
  C      178.931     672.892     521.782
  O      180.195     673.418     522.110
  C      177.926     672.847     522.927
  O      178.003     674.037     523.722
  C      176.589     672.785     522.160
  N      176.058     671.430     521.993
  C      175.434     670.880     523.116
  O      175.365     671.520     524.168
  N      174.928     669.602     523.020
  C      174.988     668.964     521.898
  N      174.464     667.698     521.856
  C      175.612     669.532     520.674
  C      176.129     670.744     520.796
  O      177.403     677.006     517.898
  O      179.417     676.353     519.342
  H      177.538     674.731     523.198
  H      179.498     677.317     519.426
  H      175.633     668.961     519.748
  H      176.594     671.234     519.955
  H      175.823     673.394     522.664
  H      178.097     671.991     523.594
  H      179.022     671.880     521.363
  H      178.247     674.855     521.131
  H      174.029     667.365     522.717
  H      179.739     674.127     519.310
  H      174.307     667.176     521.010
  H      178.729     672.690     519.028
  P      181.446     672.472     522.451
  C      182.759     673.253     520.379
  O      182.155     672.155     521.028
  O      181.120     671.261     523.264
  O      182.499     673.464     523.144
  H      182.228     673.638     524.082
  H      183.192     672.928     519.456
  H      183.523     673.662     521.007
  H      182.020     674.002     520.182

 6  7  8  9  10  11  12  13  14  15  16  26  30  31  32  33  35 0
 6-311+G(2d,p)
 ****
 37  38 0
 6-311+G(2d,p)
 ****
 1  2  3  4  5  17  18  19  20  21  22  23  24  25 0
 3-21G
 ****
 27  28  29  34  36  39  40  41  42  43  44  45  46 0
 3-21G
 ****


