%nproc=1
%NoSave
%Mem=1900MB
#P OB98/GEN NMR

erre ene a

0 1
  C      787.311     -31.754    -210.895
  O      788.375     -32.661    -211.157
  H      787.270     -31.021    -211.694
  H      787.474     -31.243    -209.944
  H      786.355     -32.294    -210.863
  P      788.638     -33.849    -210.115
  C      791.072     -33.090    -209.652
  O      789.769     -33.317    -209.119
  C      792.032     -32.647    -208.565
  O      791.620     -31.371    -208.035
  C      792.110     -33.607    -207.376
  O      792.969     -34.689    -207.678
  C      792.666     -32.683    -206.307
  O      794.079     -32.483    -206.519
  C      791.888     -31.380    -206.600
  N      789.608     -29.606    -202.431
  C      790.948     -29.605    -202.783
  N      791.812     -29.098    -201.857
  N      791.411     -30.077    -203.910
  C      790.445     -30.610    -204.689
  C      789.082     -30.683    -204.449
  C      788.596     -30.109    -203.220
  O      787.400     -30.072    -202.878
  N      788.432     -31.374    -205.443
  C      789.384     -31.670    -206.312
  N      790.621     -31.240    -205.886
  O      788.943     -35.195    -210.701
  O      787.317     -33.866    -209.207
  H      794.356     -31.806    -205.876
  H      786.662     -34.497    -209.554
  H      789.326     -29.241    -201.532
  H      789.229     -32.189    -207.246
  H      792.488     -30.484    -206.374
  H      792.534     -33.067    -205.295
  H      791.551     -28.992    -200.894
  H      791.109     -33.950    -207.058
  H      792.796     -29.134    -202.082
  H      793.019     -32.509    -209.017
  H      790.984     -32.325    -210.426
  H      791.444     -34.019    -210.120
  P      793.137     -35.933    -206.656
  C      795.704     -35.540    -206.776
  O      794.556     -35.678    -205.936
  O      792.985     -37.270    -207.276
  O      792.094     -35.621    -205.488
  H      791.187     -35.988    -205.649
  H      796.571     -35.376    -206.171
  H      795.566     -34.708    -207.434
  H      795.834     -36.433    -207.352

 6  7  8  9  10  11  12  13  14  15  26  29  33  34 0
 6-311+G(2d,p)
 ****
 36  38  39  40  41 0
 6-311+G(2d,p)
 ****
 1  2  3  4  5  16  17  18  19  20  21  22  23  24  25 0
 3-21G
 ****
 27  28  30  31  32  35  37  42  43  44  45  46  47 0
 3-21G
 ****
 48  49 0
 3-21G
 ****


