%nproc=1
%NoSave
%Mem=1900MB
#P OB98/GEN NMR

erre ene a

0 1
  C       13.174     -71.032    -611.808
  O       13.873     -69.858    -611.370
  P       12.949     -68.648    -610.844
  C       12.249     -67.891    -613.237
  O       11.825     -68.360    -611.958
  C       11.064     -67.611    -614.159
  O       11.521     -66.833    -615.304
  C       10.366     -68.854    -614.718
  O        8.953     -68.599    -614.791
  C       10.887     -68.952    -616.137
  O       10.014     -69.692    -616.982
  C       11.007     -67.463    -616.486
  N       11.166     -66.231    -621.392
  C       10.087     -66.278    -620.526
  N        8.876     -65.980    -621.049
  N       10.181     -66.593    -619.261
  C       11.459     -66.844    -618.869
  C       12.611     -66.823    -619.629
  C       12.480     -66.516    -621.034
  O       13.386     -66.511    -621.860
  N       13.713     -67.133    -618.878
  C       13.235     -67.353    -617.657
  N       11.868     -67.194    -617.611
  O       13.927     -67.376    -610.944
  O       12.444     -68.830    -609.456
  H       10.396     -69.667    -617.887
  H       13.999     -66.939    -610.074
  H       11.027     -66.006    -622.357
  H       13.813     -67.646    -616.800
  H       10.020     -67.034    -616.702
  H       11.868     -69.444    -616.129
  H        8.734     -65.659    -622.002
  H       10.547     -69.763    -614.140
  H        8.086     -65.958    -620.429
  H       10.345     -66.976    -613.612
  H       12.897     -68.640    -613.698
  H       12.845     -66.983    -613.090
  P        8.038     -69.313    -613.682
  C        7.832     -71.544    -615.019
  O        8.299     -70.892    -613.856
  O        6.551     -69.120    -614.254
  O        8.192     -68.772    -612.305
  H        5.907     -69.123    -613.522
  H        7.503     -70.841    -615.791
  H        6.997     -72.196    -614.755
  H        8.648     -72.158    -615.432
  H       13.880     -71.767    -612.134
  H       12.524     -70.778    -612.619
  H       12.597     -71.427    -610.998

 3  4  5  6  7  8  9  10  11  12  23  26  30  31  33  0
 6-311+G(2d,p)
 ****
 35  36  37  38 0
 6-311+G(2d,p)
 ****
 1  2  13  14  15  16  17  18  19  20  21  22  24  25  27  28  29 0
 3-21G
 ****
 32  34  39  40  41  42  43  44  45  46  47  48  49 0
 3-21G
 ****


