%nproc=1
%NoSave
%Mem=1900MB
#P OB98/GEN NMR

erre ene a

0 1
  C      547.860     -29.187     -81.246
  O      547.044     -29.265     -82.399
  H      547.774     -28.182     -80.824
  H      548.905     -29.374     -81.497
  H      547.519     -29.909     -80.499
  P      547.108     -30.584     -83.303
  C      544.538     -30.608     -83.501
  O      545.777     -30.585     -84.201
  C      544.110     -29.194     -83.111
  O      543.994     -28.396     -84.323
  C      542.770     -29.139     -82.374
  O      542.843     -28.122     -81.376
  C      541.801     -28.739     -83.471
  O      540.639     -28.127     -82.946
  C      542.670     -27.836     -84.355
  N      542.136     -27.763     -85.714
  C      542.246     -26.528     -86.366
  O      542.781     -25.573     -85.798
  N      541.687     -26.380     -87.611
  C      541.033     -27.364     -88.141
  N      540.470     -27.142     -89.361
  C      540.865     -28.675     -87.481
  C      541.435     -28.805     -86.287
  O      547.377     -31.863     -82.586
  O      548.260     -30.258     -84.369
  H      540.071     -27.820     -83.684
  H      549.122     -30.562     -84.029
  H      540.298     -29.460     -87.963
  H      541.362     -29.729     -85.720
  H      542.723     -26.821     -83.942
  H      541.488     -29.631     -84.031
  H      542.493     -30.097     -81.916
  H      544.906     -28.737     -82.510
  H      540.587     -26.219     -89.762
  H      544.677     -31.211     -82.599
  H      539.900     -27.810     -89.850
  H      543.771     -31.077     -84.125
  P      543.034     -28.505     -79.829
  C      543.958     -26.354     -78.800
  O      542.812     -27.193     -78.928
  O      544.282     -29.263     -79.523
  O      541.742     -29.400     -79.493
  H      541.971     -30.048     -78.799
  H      543.716     -25.511     -78.187
  H      544.262     -26.015     -79.768
  H      544.756     -26.906     -78.349

 6  7  8  9  10  11  12  13  14  15  16  26  30  31  32  33  35 0
 6-311+G(2d,p)
 ****
 37  38 0
 6-311+G(2d,p)
 ****
 1  2  3  4  5  17  18  19  20  21  22  23  24  25 0
 3-21G
 ****
 27  28  29  34  36  39  40  41  42  43  44  45  46 0
 3-21G
 ****


