%nproc=1
%NoSave
%Mem=1900MB
#P OB98/GEN NMR

erre ene a

0 1
  C     -136.454     453.918    -249.789
  O     -135.177     453.686    -250.383
  P     -134.159     452.673    -249.662
  C     -133.099     451.499    -251.689
  O     -132.902     452.428    -250.633
  C     -133.517     452.181    -252.999
  O     -132.610     453.265    -253.331
  C     -133.563     451.242    -254.216
  O     -134.654     451.672    -255.034
  C     -132.235     451.517    -254.890
  O     -132.215     451.086    -256.243
  C     -132.125     453.030    -254.670
  N     -130.770     453.524    -254.846
  C     -130.277     453.584    -256.153
  O     -130.947     453.135    -257.083
  N     -129.032     454.125    -256.360
  C     -128.289     454.432    -255.342
  N     -127.072     454.984    -255.588
  C     -128.707     454.213    -253.944
  C     -129.954     453.784    -253.773
  O     -134.775     451.430    -249.109
  O     -133.531     453.574    -248.493
  H     -131.289     451.073    -256.559
  H     -133.358     453.007    -247.714
  H     -128.022     454.402    -253.128
  H     -130.359     453.597    -252.788
  H     -132.788     453.575    -255.356
  H     -131.437     450.993    -254.355
  H     -133.714     450.190    -253.944
  H     -134.510     452.625    -252.845
  H     -126.789     455.108    -256.553
  H     -133.872     450.783    -251.398
  H     -126.453     455.298    -254.850
  H     -132.181     450.915    -251.826
  P     -136.023     450.829    -255.023
  C     -137.559     452.788    -255.759
  O     -137.037     451.515    -256.053
  O     -136.651     451.257    -253.606
  O     -135.878     449.344    -255.088
  H     -137.251     450.549    -253.301
  H     -137.989     453.213    -256.669
  H     -136.779     453.467    -255.397
  H     -138.349     452.699    -255.008
  H     -137.006     454.612    -250.389
  H     -136.322     454.321    -248.807
  H     -136.991     452.995    -249.726

 3  4  5  6  7  8  9  10  11  12  13  23  27  28  29  30  32 0
 6-311+G(2d,p)
 ****
 34  35 0
 6-311+G(2d,p)
 ****
 1  2  14  15  16  17  18  19  20  21  22  24  25  26 0
 3-21G
 ****
 31  33  36  37  38  39  40  41  42  43  44  45  46 0
 3-21G
 ****


