%nproc=1
%NoSave
%Mem=1900MB
#P OB98/GEN NMR

erre ene a

0 1
  C     -641.048    -891.830    -895.570
  O     -642.256    -892.560    -895.280
  P     -643.437    -891.860    -894.450
  C     -645.782    -892.230    -895.540
  O     -644.600    -891.430    -895.460
  C     -645.759    -893.090    -896.820
  O     -644.702    -894.070    -896.760
  C     -647.025    -893.860    -897.080
  O     -648.060    -893.030    -897.590
  C     -646.530    -894.900    -898.080
  O     -646.514    -894.370    -899.420
  C     -645.116    -895.190    -897.590
  N     -645.005    -896.450    -896.860
  C     -644.778    -897.580    -897.640
  O     -644.734    -897.570    -898.870
  N     -644.655    -898.760    -896.940
  C     -644.774    -898.930    -895.600
  O     -644.665    -900.000    -895.030
  C     -645.080    -897.690    -894.840
  C     -645.185    -896.540    -895.480
  O     -642.772    -890.450    -894.080
  O     -643.862    -892.580    -893.210
  H     -646.172    -895.080    -900.000
  H     -643.163    -890.110    -893.250
  H     -644.456    -899.590    -897.490
  H     -645.206    -897.770    -893.770
  H     -645.409    -895.630    -894.950
  H     -644.416    -895.200    -898.420
  H     -647.180    -895.790    -898.100
  H     -647.339    -894.360    -896.160
  H     -645.526    -892.410    -897.670
  H     -646.644    -891.580    -895.570
  H     -645.849    -892.870    -894.660
  P     -649.295    -892.720    -896.600
  C     -650.194    -890.400    -897.390
  O     -649.359    -891.120    -896.500
  O     -648.668    -893.180    -895.200
  O     -650.556    -893.430    -896.990
  H     -647.716    -893.040    -895.150
  H     -651.100    -890.960    -897.650
  H     -649.624    -890.160    -898.300
  H     -650.474    -889.460    -896.910
  H     -640.380    -892.453    -896.127
  H     -640.580    -891.536    -894.654
  H     -641.287    -890.959    -896.144

 3  4  5  6  7  8  9  10  11  12  13  23  28  29  30  31  32 0
 6-311+G(2d,p)
 ****
 33  34 0
 6-311+G(2d,p)
 ****
 1  2  14  15  16  17  18  19  20  21  22  24  25  26 0
 3-21G
 ****
 27  35  36  37  38  39  40  41  42  43  44  45 0
 3-21G
 ****


