%nproc=1
%NoSave
%Mem=1900MB
#P OB98/GEN NMR

erre ene a

0 1
  C        5.977      66.488      11.039
  O        5.126      65.404      10.706
  P        5.603      64.416       9.533
  C        7.180      63.375      11.314
  O        7.025      63.818       9.973
  C        8.261      62.297      11.411
  O        7.781      61.091      10.753
  C        9.600      62.675      10.758
  O       10.629      62.072      11.549
  C        9.489      62.008       9.398
  O       10.726      61.863       8.724
  C        8.788      60.710       9.788
  N        7.758      56.159       7.704
  C        8.314      56.501       8.887
  N        8.549      57.736       9.378
  C        8.135      58.676       8.512
  C        7.569      58.480       7.264
  C        7.380      57.148       6.862
  N        6.820      56.801       5.649
  N        7.299      59.686       6.652
  C        7.698      60.597       7.515
  N        8.189      60.035       8.661
  O        5.980      65.420       8.347
  O        4.587      63.403       9.109
  H       10.598      61.359       7.896
  H        5.711      65.060       7.481
  H        8.609      55.674       9.525
  H        7.665      61.666       7.355
  H        9.471      60.006      10.278
  H        8.843      62.617       8.755
  H        9.770      63.755      10.712
  H        8.411      62.053      12.469
  H        6.236      62.947      11.666
  H        6.913      55.835       5.373
  H        6.737      57.533       4.955
  H        7.420      64.231      11.954
  P       12.147      62.548      11.340
  C       12.014      64.095      13.386
  O       12.183      64.018      11.984
  O       12.147      62.882       9.774
  O       13.198      61.584      11.771
  H       11.405      63.464       9.531
  H       12.158      65.133      13.698
  H       12.752      63.467      13.893
  H       11.003      63.781      13.657
  H        5.536      67.058      11.830
  H        6.110      67.113      10.181
  H        6.927      66.111      11.357

 3  4  5  6  7  8  9  10  11  12  22  25  29  30  31  32 0
 6-311+G(2d,p)
 ****
 33  36  37 0
 6-311+G(2d,p)
 ****
 1  2  13  14  15  16  17  18  19  20  21  23  24  26 0
 3-21G
 ****
 27  28  34  35  38  39  40  41  42  43  44  45  46  47  48 0
 3-21G
 ****


