%nproc=1
%NoSave
%Mem=1900MB
#P OB98/GEN NMR

erre ene a

0 1
  C      158.381      63.688     -87.119
  O      158.726      63.343     -85.778
  P      157.890      63.993     -84.573
  C      159.301      66.042     -83.893
  O      158.144      65.580     -84.582
  C      159.591      67.507     -84.242
  O      159.661      67.714     -85.663
  C      158.515      68.460     -83.748
  O      158.602      68.648     -82.344
  C      158.812      69.694     -84.588
  O      159.873      70.469     -84.009
  C      159.275      69.078     -85.928
  N      158.268      69.144     -86.975
  C      157.854      70.429     -87.347
  O      158.315      71.421     -86.777
  N      156.920      70.554     -88.349
  C      156.435      69.494     -88.923
  N      155.521      69.678     -89.911
  C      156.830      68.119     -88.545
  C      157.731      68.020     -87.570
  O      158.049      63.331     -83.246
  O      156.373      63.877     -85.100
  H      160.042      71.206     -84.631
  H      155.780      63.788     -84.325
  H      156.401      67.268     -89.055
  H      158.080      67.048     -87.230
  H      160.175      69.588     -86.293
  H      157.936      70.358     -84.666
  H      157.527      68.068     -84.009
  H      160.560      67.776     -83.792
  H      155.251      70.626     -90.138
  H      160.159      65.417     -84.163
  H      155.119      68.917     -90.443
  H      159.141      65.916     -82.814
  P      157.490      67.941     -81.435
  C      156.740      70.277     -80.570
  O      156.353      69.022     -81.118
  O      158.241      67.773     -80.020
  O      156.997      66.626     -81.943
  H      157.937      66.957     -79.587
  H      155.932      70.988     -80.706
  H      157.640      70.667     -81.050
  H      156.925      70.155     -79.494
  H      159.029      63.174     -87.798
  H      158.488      64.744     -87.255
  H      157.367      63.405     -87.310

 3  4  5  6  7  8  9  10  11  12  13  23  27  28  29  30  32 0
 6-311+G(2d,p)
 ****
 34  35 0
 6-311+G(2d,p)
 ****
 1  2  14  15  16  17  18  19  20  21  22  24  25  26 0
 3-21G
 ****
 31  33  36  37  38  39  40  41  42  43  44  45  46 0
 3-21G
 ****


