%nproc=1
%NoSave
%Mem=1900MB
#P OB98/GEN NMR

erre ene a

0 1
  C      134.153     413.363     -43.019
  O      133.948     413.061     -41.651
  H      134.526     414.388     -43.099
  H      133.204     413.286     -43.562
  H      134.890     412.680     -43.455
  P      133.565     411.548     -41.294
  C      131.061     412.120     -40.736
  O      131.980     411.386     -41.534
  C      129.643     411.943     -41.272
  O      129.532     412.414     -42.631
  C      129.195     410.493     -41.356
  O      128.953     409.920     -40.095
  C      127.949     410.635     -42.224
  O      126.835     411.094     -41.446
  C      128.402     411.723     -43.229
  N      128.738     411.168     -44.535
  C      127.698     411.152     -45.480
  O      126.587     411.596     -45.178
  N      127.936     410.605     -46.713
  C      129.115     410.142     -46.996
  N      129.291     409.605     -48.234
  C      130.248     410.163     -46.046
  C      129.987     410.683     -44.847
  O      133.684     411.522     -39.699
  O      134.373     410.500     -41.992
  H      126.927     412.064     -41.381
  H      133.162     412.217     -39.258
  H      131.217     409.774     -46.332
  H      130.763     410.737     -44.094
  H      127.611     412.471     -43.370
  H      127.652     409.685     -42.676
  H      129.930     409.902     -41.925
  H      128.964     412.537     -40.650
  H      128.485     409.586     -48.849
  H      131.332     413.183     -40.708
  H      130.151     409.184     -48.552
  H      131.126     411.739     -39.713
  P      129.428     408.423     -39.767
  C      127.295     407.288     -40.660
  O      128.685     407.474     -40.841
  O      129.268     407.995     -38.355
  O      130.945     408.399     -40.290
  H      131.059     408.595     -41.238
  H      126.918     406.645     -41.428
  H      126.799     408.235     -40.712
  H      127.116     406.844     -39.703

 6  7  8  9  10  11  12  13  14  15  16  26  30  31  32  33  35 0
 6-311+G(2d,p)
 ****
 37  38 0
 6-311+G(2d,p)
 ****
 1  2  3  4  5  17  18  19  20  21  22  23  24  25 0
 3-21G
 ****
 27  28  29  34  36  39  40  41  42  43  44  45  46 0
 3-21G
 ****


