%nproc=1
%NoSave
%Mem=1900MB
#P OB98/GEN NMR

erre ene a

0 1
  C      -16.601      20.603     161.041
  O      -16.854      21.354     159.873
  H      -15.548      20.725     161.314
  H      -16.795      19.542     160.867
  H      -17.219      20.965     161.869
  P      -18.318      21.298     159.220
  C      -17.621      20.000     157.100
  O      -18.370      19.976     158.310
  C      -18.511      19.580     155.920
  O      -18.887      18.194     156.122
  C      -19.794      20.422     155.823
  O      -19.986      20.991     154.530
  C      -20.867      19.483     156.360
  O      -22.167      19.744     155.877
  C      -20.321      18.093     156.014
  N      -20.826      17.026     156.878
  C      -21.747      16.139     156.324
  O      -22.156      16.174     155.165
  N      -22.206      15.157     157.171
  C      -21.855      14.994     158.477
  O      -22.297      14.092     159.184
  C      -20.900      15.979     159.010
  C      -20.438      16.936     158.203
  O      -18.767      22.544     158.536
  O      -19.277      20.927     160.450
  H      -22.793      19.238     156.441
  H      -19.773      21.719     160.726
  H      -22.860      14.500     156.777
  H      -20.611      15.885     160.052
  H      -19.732      17.680     158.561
  H      -20.567      17.828     154.984
  H      -20.902      19.590     157.451
  H      -19.731      21.302     156.476
  H      -17.920      19.633     154.999
  H      -16.784      19.304     157.209
  H      -17.231      21.009     156.929
  P      -19.789      22.532     154.165
  C      -21.878      23.224     155.609
  O      -20.510      23.420     155.286
  O      -20.053      22.905     152.741
  O      -18.222      22.795     154.451
  H      -17.935      23.475     153.811
  H      -22.165      23.912     156.376
  H      -22.023      22.222     155.956
  H      -22.477      23.390     154.738

 6  7  8  9  10  11  12  13  14  15  16  26  31  32  33  34  35 0
 6-311+G(2d,p)
 ****
 36  37 0
 6-311+G(2d,p)
 ****
 1  2  3  4  5  17  18  19  20  21  22  23  24  25 0
 3-21G
 ****
 27  28  29  30  38  39  40  41  42  43  44  45 0
 3-21G
 ****


