%nproc=1
%NoSave
%Mem=1900MB
#P OB98/GEN NMR

erre ene a

0 1
  C       -6.309      -3.609       1.553
  O       -4.940      -3.941       1.403
  P       -4.418      -4.398      -0.040
  C       -3.251      -2.236      -0.889
  O       -4.375      -3.096      -0.976
  C       -2.417      -2.316      -2.169
  O       -1.463      -1.212      -2.194
  C       -1.613      -3.617      -2.311
  O       -1.553      -3.938      -3.708
  C       -0.237      -3.207      -1.823
  O        0.794      -4.080      -2.257
  C       -0.158      -1.790      -2.400
  N        0.893      -0.983      -1.784
  C        2.210      -1.365      -2.014
  O        2.536      -2.334      -2.698
  N        3.166      -0.625      -1.373
  C        2.940       0.377      -0.475
  O        3.838       0.923       0.155
  C        1.528       0.738      -0.271
  C        0.586       0.055      -0.924
  O       -5.644      -5.244      -0.623
  O       -3.152      -5.187      -0.024
  H        1.645      -3.667      -2.026
  H       -5.476      -6.200      -0.524
  H        4.127      -0.881      -1.537
  H        1.313       1.544       0.419
  H       -0.464       0.286      -0.777
  H        0.005      -1.832      -3.484
  H       -0.229      -3.193      -0.727
  H       -2.032      -4.455      -1.745
  H       -3.085      -2.185      -3.029
  H       -2.634      -2.536      -0.041
  H       -3.587      -1.208      -0.711
  P       -1.370      -5.480      -4.117
  C       -3.633      -5.295      -5.410
  O       -2.820      -6.025      -4.517
  O       -1.092      -6.138      -2.683
  O       -0.274      -5.713      -5.105
  H       -1.682      -5.793      -1.993
  H       -3.038      -4.784      -6.171
  H       -4.213      -4.557      -4.851
  H       -4.322      -5.983      -5.906
  H       -6.498      -3.326       2.567
  H       -6.911      -4.457       1.301
  H       -6.551      -2.793       0.904

 3  4  5  6  7  8  9  10  11  12  13  23  28  29  30  31  32 0
 6-311+G(2d,p)
 ****
 33  34 0
 6-311+G(2d,p)
 ****
 1  2  14  15  16  17  18  19  20  21  22  24  25  26 0
 3-21G
 ****
 27  35  36  37  38  39  40  41  42  43  44  45 0
 3-21G
 ****


