%nproc=1
%NoSave
%Mem=1900MB
#P OB98/GEN NMR

erre ene a

0 1
  C     -227.290      15.518     284.453
  O     -226.908      15.932     283.161
  P     -227.337      17.376     282.606
  C     -229.711      18.325     282.301
  O     -228.841      17.218     282.068
  C     -230.950      18.211     281.418
  O     -231.715      17.013     281.728
  C     -231.948      19.346     281.598
  O     -231.544      20.640     281.203
  C     -233.183      18.770     280.924
  O     -233.114      18.921     279.506
  C     -233.075      17.275     281.317
  N     -234.035      16.913     282.363
  C     -235.355      16.772     281.950
  O     -235.729      16.930     280.787
  N     -236.252      16.462     282.934
  C     -235.975      16.331     284.265
  O     -236.846      16.100     285.101
  C     -234.566      16.511     284.641
  C     -233.674      16.790     283.687
  O     -226.388      17.991     281.634
  O     -227.547      18.237     283.946
  H     -233.842      18.401     279.120
  H     -228.223      17.888     284.551
  H     -237.225      16.369     282.665
  H     -234.315      16.405     285.689
  H     -232.627      16.928     283.940
  H     -233.268      16.635     280.444
  H     -234.101      19.263     281.259
  H     -232.182      19.429     282.671
  H     -230.624      18.123     280.376
  H     -229.179      19.250     282.058
  H     -229.982      18.362     283.363
  P     -232.142      21.979     281.841
  C     -234.509      22.879     282.387
  O     -233.725      21.988     281.622
  O     -231.397      23.246     281.544
  O     -232.024      21.676     283.409
  H     -231.875      22.508     283.891
  H     -235.565      22.714     282.146
  H     -234.257      23.911     282.151
  H     -234.366      22.691     283.456
  H     -226.912      14.534     284.639
  H     -228.358      15.509     284.524
  H     -226.890      16.196     285.178

 3  4  5  6  7  8  9  10  11  12  13  23  28  29  30  31  32 0
 6-311+G(2d,p)
 ****
 33  34 0
 6-311+G(2d,p)
 ****
 1  2  14  15  16  17  18  19  20  21  22  24  25  26  27 0
 3-21G
 ****
 35  36  37  38  39  40  41  42  43  44  45 0
 3-21G
 ****


