%nproc=1
%NoSave
%Mem=1900MB
#P OB98/GEN NMR

erre ene a

0 1
  C     -167.238     -46.279      32.769
  O     -166.792     -45.781      31.524
  H     -166.578     -47.093      33.078
  H     -168.257     -46.666      32.691
  H     -167.197     -45.491      33.526
  P     -167.682     -44.684      30.766
  C     -166.270     -42.892      31.963
  O     -166.807     -43.339      30.725
  C     -165.234     -41.787      31.738
  O     -164.007     -42.398      31.255
  C     -165.675     -40.729      30.721
  O     -165.200     -39.454      31.163
  C     -164.951     -41.160      29.461
  O     -164.779     -40.080      28.563
  C     -163.654     -41.755      30.014
  N     -163.055     -42.695      29.064
  C     -162.006     -42.202      28.279
  O     -161.618     -41.037      28.416
  N     -161.461     -43.011      27.316
  C     -161.957     -44.191      27.108
  N     -161.397     -44.926      26.111
  C     -163.081     -44.743      27.894
  C     -163.575     -43.949      28.847
  O     -169.077     -44.507      31.269
  O     -167.666     -45.174      29.240
  H     -165.591     -39.530      28.555
  H     -168.423     -45.767      29.073
  H     -163.462     -45.730      27.680
  H     -164.408     -44.266      29.466
  H     -162.925     -40.966      30.237
  H     -165.537     -41.934      28.946
  H     -166.759     -40.696      30.580
  H     -164.999     -41.328      32.708
  H     -160.644     -44.497      25.583
  H     -165.794     -43.747      32.453
  H     -161.723     -45.841      25.831
  H     -167.076     -42.523      32.606
  P     -166.225     -38.334      31.685
  C     -166.173     -39.194      34.097
  O     -165.955     -38.070      33.249
  O     -167.656     -38.585      31.336
  O     -165.705     -36.985      30.991
  H     -166.463     -36.386      30.841
  H     -165.969     -38.921      35.111
  H     -165.523     -39.992      33.805
  H     -167.191     -39.513      34.012

 6  7  8  9  10  11  12  13  14  15  16  26  30  31  32  33  35 0
 6-311+G(2d,p)
 ****
 37  38 0
 6-311+G(2d,p)
 ****
 1  2  3  4  5  17  18  19  20  21  22  23  24  25 0
 3-21G
 ****
 27  28  29  34  36  39  40  41  42  43  44  45  46 0
 3-21G
 ****


