%nproc=1
%NoSave
%Mem=1900MB
#P OB98/GEN NMR

erre ene a

0 1
  C        0.551    -435.339    -890.840
  O        1.195    -436.499    -891.320
  H        1.167    -434.465    -891.080
  H        0.433    -435.395    -889.750
  H       -0.431    -435.218    -891.310
  P        0.466    -437.895    -891.040
  C       -0.457    -439.826    -892.520
  O        0.298    -438.617    -892.460
  C       -0.749    -440.192    -893.970
  O       -1.650    -439.227    -894.580
  C        0.482    -440.269    -894.880
  O        1.144    -441.514    -894.730
  C       -0.142    -440.070    -896.250
  O       -0.700    -441.301    -896.740
  C       -1.236    -439.039    -895.960
  N       -2.277    -434.750    -898.440
  C       -2.954    -435.948    -898.410
  N       -4.052    -436.060    -899.210
  N       -2.591    -436.986    -897.690
  C       -1.467    -436.761    -896.970
  C       -0.718    -435.606    -896.880
  C       -1.152    -434.471    -897.660
  O       -0.634    -433.350    -897.690
  N        0.339    -435.748    -896.020
  C        0.257    -437.006    -895.620
  N       -0.823    -437.658    -896.160
  O       -1.038    -437.467    -890.670
  O        1.069    -438.733    -889.960
  H       -0.986    -441.177    -897.670
  H       -1.417    -438.109    -890.050
  H       -2.616    -433.999    -899.000
  H        0.929    -437.481    -894.910
  H       -2.121    -439.186    -896.590
  H        0.593    -439.754    -896.980
  H       -4.168    -435.450    -900.000
  H        1.172    -439.429    -894.650
  H       -4.533    -436.942    -899.220
  H       -1.271    -441.160    -893.960
  H       -1.406    -439.670    -891.990
  H        0.105    -440.627    -892.030
  P        2.699    -441.593    -895.140
  C        4.875    -442.433    -893.990
  O        3.458    -442.244    -893.890
  O        3.163    -440.051    -895.090
  O        2.976    -442.207    -896.470
  H        3.993    -439.944    -895.580
  H        5.241    -442.874    -893.086
  H        5.351    -441.487    -894.144
  H        5.091    -443.079    -894.815

 6  7  8  9  10  11  12  13  14  15  26  29  33  34 0
 6-311+G(2d,p)
 ****
 36  38  39  40  41 0
 6-311+G(2d,p)
 ****
 1  2  3  4  5  16  17  18  19  20  21  22  23  24  25 0
 3-21G
 ****
 27  28  30  31  32  35  37  42  43  44  45  46  47 0
 3-21G
 ****
 48  49 0
 3-21G
 ****


