%nproc=1
%NoSave
%Mem=1900MB
#P OB98/GEN NMR

erre ene a

0 1
  C      180.583    -176.963       4.074
  O      181.610    -176.769       5.052
  P      181.706    -175.299       5.691
  C      183.749    -174.722       4.203
  O      182.447    -174.346       4.632
  C      184.418    -173.604       3.393
  O      183.961    -173.617       2.008
  C      184.142    -172.196       3.940
  O      185.321    -171.413       3.704
  C      183.032    -171.699       3.031
  O      182.915    -170.276       3.077
  C      183.498    -172.283       1.699
  N      182.263    -170.754      -2.953
  C      183.368    -170.451      -2.182
  N      184.307    -169.663      -2.753
  N      183.540    -170.881      -0.957
  C      182.537    -171.692      -0.534
  C      181.401    -172.079      -1.208
  C      181.210    -171.569      -2.548
  O      180.252    -171.810      -3.276
  N      180.630    -172.937      -0.450
  C      181.280    -173.006       0.700
  N      182.465    -172.316       0.683
  O      182.782    -175.481       6.863
  O      180.403    -174.781       6.210
  H      183.072    -169.995       4.002
  H      182.330    -175.561       7.725
  H      182.176    -170.378      -3.884
  H      180.951    -173.558       1.569
  H      184.334    -171.717       1.269
  H      182.069    -172.130       3.333
  H      184.266    -169.340      -3.709
  H      183.869    -172.164       5.000
  H      185.150    -169.460      -2.223
  H      185.500    -173.788       3.384
  H      183.694    -175.622       3.587
  H      184.351    -174.988       5.079
  P      186.528    -171.541       4.752
  C      186.412    -169.257       5.969
  O      186.146    -170.644       6.022
  O      187.707    -170.714       4.051
  O      186.956    -172.945       5.043
  H      188.561    -171.164       4.204
  H      185.719    -168.739       6.635
  H      186.288    -168.857       4.956
  H      187.433    -169.067       6.307
  H      180.613    -177.972       3.720
  H      180.740    -176.293       3.255
  H      179.628    -176.769       4.516

 3  4  5  6  7  8  9  10  11  12  23  26  30  31 0
 6-311+G(2d,p)
 ****
 33  35  36  37  38 0
 6-311+G(2d,p)
 ****
 1  2  13  14  15  16  17  18  19  20  21  22  24  25 0
 3-21G
 ****
 27  28  29  32  34  39  40  41  42  43  44  45  46  47  48  49 0
 3-21G
 ****


