%nproc=1
%NoSave
%Mem=1900MB
#P OB98/GEN NMR

erre ene a

0 1
  C     -166.295     742.358    -347.844
  O     -165.476     741.299    -348.306
  H     -165.655     743.132    -347.407
  H     -166.986     742.007    -347.070
  H     -166.858     742.792    -348.673
  P     -166.191     739.971    -348.849
  C     -166.351     740.652    -351.340
  O     -167.049     740.432    -350.117
  C     -167.242     740.298    -352.526
  O     -167.478     738.878    -352.564
  C     -168.619     740.945    -352.454
  O     -168.552     742.314    -352.799
  C     -169.397     740.066    -353.412
  O     -169.151     740.431    -354.776
  C     -168.808     738.672    -353.099
  N     -169.633     737.905    -352.170
  C     -170.909     737.555    -352.630
  O     -171.277     737.880    -353.756
  N     -171.737     736.859    -351.788
  C     -171.332     736.525    -350.602
  N     -172.202     735.838    -349.817
  C     -169.992     736.865    -350.085
  C     -169.206     737.551    -350.913
  O     -166.952     739.159    -347.847
  O     -164.990     739.142    -349.505
  H     -168.180     740.429    -354.882
  H     -164.576     738.556    -348.844
  H     -169.694     736.565    -349.091
  H     -168.204     737.840    -350.609
  H     -168.692     738.085    -354.021
  H     -170.470     740.136    -353.238
  H     -169.045     740.819    -351.454
  H     -166.720     740.576    -353.448
  H     -173.114     735.634    -350.212
  H     -165.466     740.007    -351.325
  H     -171.965     735.452    -348.916
  H     -166.019     741.694    -351.414
  P     -169.647     743.347    -352.254
  C     -168.411     743.827    -350.044
  O     -169.565     743.256    -350.656
  O     -171.012     743.196    -352.836
  O     -168.982     744.775    -352.562
  H     -169.023     744.990    -353.527
  H     -168.472     743.704    -348.983
  H     -168.361     744.869    -350.280
  H     -167.533     743.336    -350.410

 6  7  8  9  10  11  12  13  14  15  16  26  30  31  32  33  35 0
 6-311+G(2d,p)
 ****
 37  38 0
 6-311+G(2d,p)
 ****
 1  2  3  4  5  17  18  19  20  21  22  23  24  25 0
 3-21G
 ****
 27  28  29  34  36  39  40  41  42  43  44  45  46 0
 3-21G
 ****


