%nproc=1
%NoSave
%Mem=1900MB
#P OB98/GEN NMR

erre ene a

0 1
  C     -965.724    -899.340    -762.243
  O     -966.419    -898.170    -762.665
  H     -964.906    -899.050    -761.596
  H     -965.329    -899.880    -763.112
  H     -966.391    -900.000    -761.681
  P     -967.652    -898.390    -763.658
  C     -968.423    -896.220    -762.493
  O     -968.358    -896.940    -763.724
  C     -968.951    -894.800    -762.746
  O     -968.174    -894.160    -763.775
  C     -970.437    -894.780    -763.199
  O     -971.104    -893.680    -762.599
  C     -970.344    -894.570    -764.704
  O     -971.517    -893.970    -765.239
  C     -969.071    -893.710    -764.805
  N     -969.698    -892.900    -769.809
  C     -970.423    -892.530    -768.741
  N     -970.167    -892.780    -767.440
  C     -969.013    -893.440    -767.289
  C     -968.155    -893.880    -768.299
  C     -968.541    -893.560    -769.593
  N     -967.835    -893.960    -770.722
  N     -967.076    -894.540    -767.741
  C     -967.273    -894.500    -766.435
  N     -968.430    -893.850    -766.108
  O     -968.555    -899.530    -763.333
  O     -966.920    -898.460    -765.068
  H     -971.418    -893.920    -766.211
  H     -966.228    -897.790    -765.165
  H     -971.355    -891.980    -768.939
  H     -966.613    -894.920    -765.664
  H     -969.247    -892.650    -764.656
  H     -970.188    -895.540    -765.206
  H     -970.969    -895.720    -762.955
  H     -968.824    -894.210    -761.818
  H     -967.428    -896.150    -762.056
  H     -968.160    -893.700    -771.631
  H     -966.940    -894.460    -770.584
  H     -969.076    -896.760    -761.811
  P     -972.347    -893.970    -761.634
  C     -972.479    -891.660    -760.435
  O     -973.103    -892.580    -761.321
  O     -972.069    -894.810    -760.427
  O     -973.377    -894.700    -762.624
  H     -973.847    -895.410    -762.111
  H     -973.097    -890.793    -760.328
  H     -971.527    -891.373    -760.831
  H     -972.343    -892.121    -759.479

 6  7  8  9  10  11  12  13  14  15  25  28  32  33  34  35 0
 6-311+G(2d,p)
 ****
 36  39  40 0
 6-311+G(2d,p)
 ****
 1  2  3  4  5  16  17  18  19  20  21  22  23  24 0
 3-21G
 ****
 26  27  29  30  31  37  38  41  42  43  44  45  46  47 0
 3-21G
 ****
 48 0
 3-21G
 ****


