%nproc=1
%NoSave
%Mem=1900MB
#P OB98/GEN NMR

erre ene a

0 1
  C      -59.783     212.297      -9.826
  O      -59.422     210.910      -9.805
  P      -58.008     210.369     -10.333
  C      -56.483     209.504      -8.441
  O      -57.505     209.183      -9.381
  C      -56.314     208.403      -7.390
  O      -57.412     208.420      -6.458
  C      -56.279     206.986      -7.949
  O      -55.027     206.704      -8.551
  C      -56.586     206.169      -6.698
  O      -55.403     205.973      -5.904
  C      -57.592     207.077      -5.964
  N      -58.970     206.629      -6.124
  C      -59.227     205.286      -5.837
  O      -58.308     204.526      -5.525
  N      -60.520     204.829      -5.937
  C      -61.453     205.624      -6.359
  N      -62.715     205.118      -6.430
  C      -61.207     207.021      -6.757
  C      -59.956     207.454      -6.614
  O      -56.992     211.443     -10.557
  O      -58.338     209.622     -11.713
  H      -55.104     206.861      -5.630
  H      -57.572     209.701     -12.309
  H      -62.007     207.641      -7.129
  H      -59.690     208.470      -6.875
  H      -57.360     207.116      -4.892
  H      -56.984     205.177      -6.931
  H      -57.090     206.854      -8.676
  H      -55.393     208.614      -6.828
  H      -62.851     204.157      -6.143
  H      -56.758     210.440      -7.941
  H      -63.512     205.650      -6.742
  H      -55.542     209.659      -8.981
  P      -54.951     206.403     -10.121
  C      -53.030     207.961     -10.812
  O      -53.433     206.623     -10.582
  O      -55.977     207.089     -10.961
  O      -55.116     204.810     -10.209
  H      -55.564     204.584     -11.045
  H      -51.942     208.022     -10.718
  H      -53.489     208.641     -10.085
  H      -53.318     208.260     -11.823
  H      -60.768     212.415      -9.426
  H      -59.762     212.656     -10.834
  H      -59.088     212.855      -9.234

 3  4  5  6  7  8  9  10  11  12  13  23  27  28  29  30  32 0
 6-311+G(2d,p)
 ****
 34  35 0
 6-311+G(2d,p)
 ****
 1  2  14  15  16  17  18  19  20  21  22  24  25  26 0
 3-21G
 ****
 31  33  36  37  38  39  40  41  42  43  44  45  46 0
 3-21G
 ****


