%nproc=1
%NoSave
%Mem=1900MB
#P OB98/GEN NMR

erre ene a

0 1
  C     -194.410    -122.090    -223.554
  O     -193.316    -122.810    -223.024
  H     -194.118    -121.669    -224.519
  H     -194.691    -121.277    -222.881
  H     -195.262    -122.761    -223.703
  P     -193.517    -123.467    -221.571
  C     -191.818    -125.342    -222.161
  O     -192.184    -124.305    -221.259
  C     -190.696    -126.177    -221.550
  O     -189.457    -125.435    -221.583
  C     -190.913    -126.537    -220.084
  O     -191.823    -127.612    -219.928
  C     -189.499    -126.892    -219.663
  O     -189.175    -128.254    -219.995
  C     -188.647    -125.902    -220.486
  N     -188.138    -124.806    -219.669
  C     -186.784    -124.865    -219.348
  O     -186.045    -125.777    -219.725
  N     -186.314    -123.857    -218.557
  C     -187.052    -122.843    -218.028
  O     -186.586    -122.009    -217.260
  C     -188.476    -122.822    -218.407
  C     -188.949    -123.792    -219.192
  O     -194.626    -124.593    -221.834
  O     -193.923    -122.515    -220.497
  H     -195.491    -124.285    -221.510
  H     -188.393    -128.489    -219.462
  H     -185.338    -123.890    -218.305
  H     -189.089    -122.023    -218.007
  H     -189.996    -123.810    -219.468
  H     -187.785    -126.418    -220.931
  H     -189.364    -126.791    -218.587
  H     -191.239    -125.655    -219.521
  H     -190.568    -127.085    -222.155
  H     -191.466    -124.902    -223.097
  H     -192.698    -125.963    -222.367
  P     -192.832    -127.581    -218.683
  C     -194.841    -128.446    -220.148
  O     -194.007    -128.632    -219.019
  O     -193.523    -126.155    -218.874
  O     -192.172    -127.791    -217.360
  H     -193.649    -125.915    -219.805
  H     -195.554    -129.242    -220.200
  H     -194.244    -128.443    -221.036
  H     -195.356    -127.512    -220.061

 6  7  8  9  10  11  12  13  14  15  16  27  31  32  33  34  35 0
 6-311+G(2d,p)
 ****
 36  37 0
 6-311+G(2d,p)
 ****
 1  2  3  4  5  17  18  19  20  21  22  23  24  25 0
 3-21G
 ****
 26  28  29  30  38  39  40  41  42  43  44  45 0
 3-21G
 ****


