%nproc=1
%NoSave
%Mem=1900MB
#P OB98/GEN NMR

erre ene a

0 1
  C        6.990    -188.793     -87.676
  O        6.137    -188.815     -86.551
  H        6.378    -188.814     -88.584
  H        7.643    -189.671     -87.672
  H        7.594    -187.881     -87.678
  P        6.840    -188.792     -85.109
  C        7.329    -186.245     -85.208
  O        6.649    -187.297     -84.539
  C        6.519    -184.949     -85.124
  O        5.378    -185.047     -86.026
  C        5.973    -184.646     -83.721
  O        6.038    -183.231     -83.495
  C        4.514    -185.064     -83.820
  O        3.701    -184.410     -82.850
  C        4.209    -184.681     -85.265
  N       -0.821    -184.475     -85.350
  C        0.102    -183.613     -84.793
  N       -0.386    -182.524     -84.154
  N        1.395    -183.799     -84.850
  C        1.747    -184.912     -85.544
  C        0.931    -185.853     -86.132
  C       -0.500    -185.642     -86.040
  O       -1.369    -186.383     -86.496
  N        1.672    -186.858     -86.709
  C        2.925    -186.524     -86.468
  N        3.024    -185.349     -85.768
  O        8.404    -188.857     -85.454
  O        6.426    -189.878     -84.175
  H        3.840    -183.444     -82.944
  H        8.898    -189.305     -84.746
  H       -1.803    -184.291     -85.265
  H        3.797    -187.093     -86.770
  H        4.042    -183.602     -85.384
  H        4.424    -186.147     -83.675
  H       -1.366    -182.297     -84.096
  H        6.503    -185.170     -82.920
  H        0.280    -181.871     -83.750
  H        7.139    -184.124     -85.492
  H        7.469    -186.520     -86.259
  H        8.312    -186.098     -84.745
  P        6.732    -182.724     -82.141
  C        9.154    -181.825     -81.865
  O        7.898    -181.683     -82.515
  O        7.539    -184.023     -81.646
  O        5.764    -182.262     -81.102
  H        7.097    -184.403     -80.863
  H        9.824    -181.067     -82.213
  H        9.562    -182.789     -82.084
  H        9.022    -181.726     -80.808

 6  7  8  9  10  11  12  13  14  15  26  29  33  34 0
 6-311+G(2d,p)
 ****
 36  38  39  40  41 0
 6-311+G(2d,p)
 ****
 1  2  3  4  5  16  17  18  19  20  21  22  23  24  25 0
 3-21G
 ****
 27  28  30  31  32  35  37  42  43  44  45  46  47 0
 3-21G
 ****
 48  49 0
 3-21G
 ****


