%nproc=1
%NoSave
%Mem=1900MB
#P OB98/GEN NMR

erre ene a

0 1
  C     -124.623    -123.889      88.669
  O     -124.511    -125.296      88.686
  H     -124.829    -123.540      89.684
  H     -125.454    -123.591      88.025
  H     -123.698    -123.422      88.321
  P     -123.937    -126.046      87.392
  C     -123.456    -128.491      88.066
  O     -124.400    -127.576      87.526
  C     -123.813    -128.820      89.517
  O     -125.217    -129.221      89.562
  C     -122.978    -129.973      90.108
  O     -122.773    -129.720      91.502
  C     -123.915    -131.149      89.925
  O     -123.585    -132.222      90.769
  C     -125.264    -130.498      90.221
  N     -126.372    -131.327      89.756
  C     -126.565    -132.540      90.407
  O     -125.856    -132.941      91.327
  N     -127.569    -133.329      89.916
  C     -128.306    -133.079      88.796
  O     -129.138    -133.859      88.356
  C     -128.020    -131.805      88.117
  C     -127.087    -130.997      88.623
  O     -122.482    -125.858      87.118
  O     -124.856    -125.522      86.191
  H     -123.971    -132.082      91.653
  H     -124.401    -125.647      85.336
  H     -127.729    -134.208      90.385
  H     -128.576    -131.583      87.216
  H     -126.837    -130.060      88.139
  H     -125.381    -130.313      91.297
  H     -123.871    -131.509      88.892
  H     -122.016    -130.108      89.607
  H     -123.720    -127.912      90.125
  H     -122.465    -128.026      88.022
  H     -123.448    -129.405      87.464
  P     -121.332    -129.321      92.087
  C     -122.283    -127.612      93.752
  O     -121.469    -128.770      93.592
  O     -120.530    -128.437      91.189
  O     -120.584    -130.725      92.278
  H     -119.676    -130.653      91.926
  H     -122.306    -127.332      94.784
  H     -123.277    -127.826      93.418
  H     -121.878    -126.808      93.173

 6  7  8  9  10  11  12  13  14  15  16  26  31  32  33  34  35 0
 6-311+G(2d,p)
 ****
 36  37 0
 6-311+G(2d,p)
 ****
 1  2  3  4  5  17  18  19  20  21  22  23  24  25 0
 3-21G
 ****
 27  28  29  30  38  39  40  41  42  43  44  45 0
 3-21G
 ****


