%nproc=1
%NoSave
%Mem=1900MB
#P OB98/GEN NMR

erre ene a

0 1
  C      280.303    -217.930       9.029
  O      279.004    -217.410       8.824
  H      280.312    -218.496       9.963
  H      281.026    -217.114       9.100
  H      280.577    -218.598       8.207
  P      278.773    -216.575       7.474
  C      277.366    -218.388       6.237
  O      277.392    -217.111       6.857
  C      275.922    -218.782       5.894
  O      275.272    -219.263       7.106
  C      275.074    -217.611       5.366
  O      274.085    -218.135       4.462
  C      274.390    -217.126       6.631
  O      273.287    -216.310       6.316
  C      274.080    -218.468       7.286
  N      270.331    -217.461      10.596
  C      270.338    -217.590       9.250
  N      271.380    -217.870       8.440
  C      272.503    -218.050       9.161
  C      272.653    -217.950      10.532
  C      271.498    -217.633      11.266
  N      271.490    -217.479      12.634
  N      273.970    -218.176      10.894
  C      274.597    -218.416       9.760
  N      273.750    -218.351       8.688
  O      279.887    -217.163       6.486
  O      278.869    -215.093       7.606
  H      272.636    -216.793       5.768
  H      280.697    -216.624       6.537
  H      269.379    -217.447       8.760
  H      275.654    -218.627       9.655
  H      273.249    -218.991       6.793
  H      275.073    -216.534       7.247
  H      275.662    -216.843       4.857
  H      275.934    -219.620       5.186
  H      277.798    -219.120       6.928
  H      277.961    -218.361       5.320
  H      270.624    -217.224      13.081
  H      272.357    -217.568      13.142
  P      274.326    -218.010       2.879
  C      273.901    -220.555       2.493
  O      273.612    -219.223       2.104
  O      275.878    -218.395       2.749
  O      274.080    -216.658       2.296
  H      276.326    -217.757       2.162
  H      273.346    -221.234       1.880
  H      273.627    -220.695       3.518
  H      274.948    -220.742       2.375

 6  7  8  9  10  11  12  13  14  15  25  28  32  33  34  35 0
 6-311+G(2d,p)
 ****
 36  37  40 0
 6-311+G(2d,p)
 ****
 1  2  3  4  5  16  17  18  19  20  21  22  23  24 0
 3-21G
 ****
 26  27  29  30  31  38  39 41  42  43  44  45  46  47  48 0
 3-21G
 ****


