%nproc=1
%NoSave
%Mem=1900MB
#P OB98/GEN NMR

erre ene a

0 1
  C       54.899    -724.834    -136.728
  O       55.558    -725.910    -136.070
  P       55.862    -727.246    -136.916
  C       58.373    -726.639    -136.970
  O       57.238    -727.047    -137.728
  C       59.636    -726.593    -137.843
  O       59.963    -727.949    -138.249
  C       59.491    -725.806    -139.155
  O       59.794    -724.410    -139.130
  C       60.552    -726.465    -140.026
  O       61.839    -725.890    -139.750
  C       60.529    -727.923    -139.587
  N       60.488    -732.391    -142.087
  C       61.416    -731.819    -141.264
  N       61.351    -730.628    -140.666
  C       60.172    -730.003    -140.916
  C       59.158    -730.474    -141.737
  C       59.347    -731.718    -142.354
  N       58.420    -732.297    -143.189
  N       58.112    -729.555    -141.779
  C       58.520    -728.542    -141.022
  N       59.759    -728.783    -140.472
  O       54.721    -727.790    -137.709
  O       56.293    -728.289    -135.767
  H       61.786    -724.960    -140.048
  H       55.948    -729.172    -135.975
  H       62.322    -732.391    -141.086
  H       57.957    -727.640    -140.853
  H       61.533    -728.352    -139.511
  H       60.370    -726.317    -141.093
  H       58.490    -725.955    -139.601
  H       60.475    -726.209    -137.264
  H       58.537    -727.316    -136.130
  H       58.657    -733.179    -143.614
  H       57.586    -731.784    -143.424
  H       58.138    -725.657    -136.542
  P       58.634    -723.304    -139.182
  C       59.588    -722.380    -136.919
  O       58.457    -722.787    -137.669
  O       57.362    -723.745    -139.837
  O       59.346    -722.078    -139.912
  H       60.052    -721.649    -139.384
  H       59.260    -721.879    -136.019
  H       60.238    -721.709    -137.502
  H       60.168    -723.275    -136.620
  H       54.768    -724.023    -136.042
  H       53.943    -725.162    -137.079
  H       55.491    -724.507    -137.558

 3  4  5  6  7  8  9  10  11  12  22  25  29  30  31  32 0
 6-311+G(2d,p)
 ****
 33  36  37 0
 6-311+G(2d,p)
 ****
 1  2  13  14  15  16  17  18  19  20  21  23  24  26 0
 3-21G
 ****
 27  28  34  35  38  39  40  41  42  43  44  45  46  47  48 0
 3-21G
 ****


