%nproc=1
%NoSave
%Mem=1900MB
#P OB98/GEN NMR

erre ene a

0 1
  C     -629.195    -945.076     105.331
  O     -630.218    -945.174     104.348
  P     -629.777    -945.500     102.841
  C     -630.984    -943.349     102.013
  O     -629.754    -944.092     102.076
  C     -630.834    -942.158     101.075
  O     -629.835    -941.242     101.588
  C     -630.390    -942.503      99.683
  O     -631.486    -942.927      98.856
  C     -629.865    -941.153      99.197
  O     -630.973    -940.315      98.824
  C     -629.189    -940.598     100.448
  N     -624.679    -939.412      98.352
  C     -625.943    -939.029      98.032
  N     -627.092    -939.413      98.645
  C     -626.854    -940.281      99.641
  C     -625.630    -940.780     100.044
  C     -624.495    -940.292      99.360
  N     -623.200    -940.651      99.703
  N     -625.765    -941.639     101.100
  C     -627.082    -941.676     101.340
  N     -627.769    -940.852     100.490
  O     -631.064    -946.245     102.236
  O     -628.536    -946.335     102.707
  H     -631.543    -940.844      98.225
  H     -630.803    -946.808     101.497
  H     -626.047    -938.348      97.213
  H     -627.550    -942.275     102.108
  H     -629.353    -939.510     100.554
  H     -629.201    -941.235      98.309
  H     -629.573    -943.229      99.668
  H     -631.790    -941.597     101.071
  H     -631.236    -942.988     103.021
  H     -622.450    -940.119      99.279
  H     -623.046    -941.145     100.574
  H     -631.781    -944.005     101.662
  P     -631.113    -943.772      97.554
  C     -632.324    -942.190      95.888
  O     -631.090    -942.723      96.346
  O     -632.441    -944.623      97.298
  O     -629.904    -944.642      97.685
  H     -632.243    -945.458      96.794
  H     -632.128    -941.276      95.312
  H     -632.993    -941.932      96.730
  H     -632.835    -942.907      95.236
  H     -629.634    -944.856     106.282
  H     -628.516    -944.294     105.062
  H     -628.666    -946.004     105.388

 3  4  5  6  7  8  9  10  11  12  22  25  29  30  31  32 0
 6-311+G(2d,p)
 ****
 33  36  37 0
 6-311+G(2d,p)
 ****
 1  2  13  14  15  16  17  18  19  20  21  23  24  26 0
 3-21G
 ****
 27  28  34  35  38  39  40  41  42  43  44  45  46  47  48 0
 3-21G
 ****


