%nproc=1
%NoSave
%Mem=1900MB
#P OB98/GEN NMR

erre ene a

0 1
  C      237.865    -208.493     243.539
  O      239.104    -207.802     243.332
  P      240.373    -208.289     244.190
  C      239.841    -206.353     245.874
  O      240.132    -207.730     245.672
  C      238.958    -206.184     247.106
  O      239.556    -206.819     248.261
  C      238.733    -204.734     247.514
  O      237.819    -204.087     246.643
  C      238.235    -204.909     248.945
  O      236.841    -205.258     248.952
  C      239.080    -206.108     249.431
  N      240.177    -205.719     250.303
  C      239.995    -205.982     251.658
  O      238.968    -206.489     252.116
  N      241.027    -205.625     252.481
  C      242.186    -205.015     252.094
  O      243.081    -204.725     252.874
  C      242.298    -204.718     250.660
  C      241.308    -205.077     249.839
  O      241.523    -207.358     243.592
  O      240.620    -209.757     244.078
  H      241.209    -206.468     243.355
  H      236.668    -205.726     248.111
  H      240.920    -205.815     253.466
  H      243.195    -204.214     250.319
  H      241.371    -204.863     248.780
  H      238.446    -206.819     249.977
  H      238.348    -203.999     249.542
  H      239.687    -204.194     247.517
  H      237.995    -206.672     246.906
  H      239.323    -205.950     245.000
  H      240.783    -205.808     245.984
  P      238.448    -203.096     245.542
  C      238.604    -201.241     247.378
  O      239.244    -201.966     246.350
  O      237.135    -202.347     245.013
  O      239.225    -203.798     244.478
  H      236.537    -202.076     245.732
  H      239.365    -200.793     248.021
  H      237.967    -201.888     247.990
  H      237.995    -200.442     246.942
  H      237.111    -208.070     242.909
  H      237.570    -208.397     244.563
  H      237.990    -209.528     243.300

 3  4  5  6  7  8  9  10  11  12  13  24  28  29  30  31  32 0
 6-311+G(2d,p)
 ****
 33  34 0
 6-311+G(2d,p)
 ****
 1  2  14  15  16  17  18  19  20  21  22  23  25  26  27 0
 3-21G
 ****
 35  36  37  38  39  40  41  42  43  44  45 0
 3-21G
 ****


