%nproc=1
%NoSave
%Mem=1900MB
#P OB98/GEN NMR

erre ene a

0 1
  C     -419.709     153.253    -887.840
  O     -418.746     152.559    -888.610
  H     -419.350     153.331    -886.810
  H     -420.656     152.700    -887.840
  H     -419.870     154.259    -888.240
  P     -419.082     152.334    -890.160
  C     -417.752     154.390    -891.010
  O     -419.024     153.783    -890.850
  C     -417.666     155.125    -892.360
  O     -417.854     154.159    -893.430
  C     -418.731     156.225    -892.520
  O     -418.145     157.323    -893.240
  C     -419.770     155.564    -893.410
  O     -420.554     156.522    -894.120
  C     -418.867     154.699    -894.290
  N     -421.381     153.532    -898.510
  C     -420.686     154.673    -898.180
  N     -420.643     155.677    -899.080
  N     -420.077     154.831    -897.030
  C     -420.169     153.751    -896.220
  C     -420.828     152.575    -896.430
  C     -421.525     152.413    -897.690
  O     -422.168     151.433    -898.050
  N     -420.714     151.732    -895.360
  C     -419.990     152.407    -894.480
  N     -419.629     153.636    -894.960
  O     -420.644     151.991    -890.160
  O     -418.268     151.278    -890.840
  H     -419.935     157.170    -894.530
  H     -420.871     151.389    -890.900
  H     -421.839     153.457    -899.400
  H     -419.692     152.064    -893.490
  H     -418.378     155.271    -895.090
  H     -420.447     154.943    -892.810
  H     -421.067     155.597    -900.000
  H     -419.147     156.574    -891.580
  H     -420.137     156.515    -898.860
  H     -416.660     155.525    -892.480
  H     -416.981     153.609    -890.970
  H     -417.580     155.104    -890.190
  P     -418.469     158.809    -892.700
  C     -416.073     159.789    -892.380
  O     -417.243     159.284    -891.760
  O     -419.656     158.558    -891.660
  O     -418.855     159.767    -893.770
  H     -420.486     158.911    -892.040
  H     -415.360     160.058    -891.629
  H     -416.322     160.652    -892.962
  H     -415.654     159.038    -893.017

 6  7  8  9  10  11  12  13  14  15  26  29  33  34 0
 6-311+G(2d,p)
 ****
 36  38  39  40  41 0
 6-311+G(2d,p)
 ****
 1  2  3  4  5  16  17  18  19  20  21  22  23  24  25 0
 3-21G
 ****
 27  28  30  31  32  35  37  42  43  44  45  46  47 0
 3-21G
 ****
 48  49 0
 3-21G
 ****


