%nproc=1
%NoSave
%Mem=1900MB
#P OB98/GEN NMR

erre ene a

0 1
  C      -38.092     -21.932     -12.201
  O      -39.205     -22.442     -12.916
  P      -40.509     -21.514     -13.029
  C      -41.835     -23.568     -14.002
  O      -41.758     -22.519     -13.051
  C      -42.894     -24.589     -13.578
  O      -42.509     -25.207     -12.332
  C      -44.276     -24.000     -13.328
  O      -44.961     -23.727     -14.540
  C      -44.910     -25.089     -12.471
  O      -45.380     -26.166     -13.300
  C      -43.714     -25.558     -11.619
  N      -43.712     -24.996     -10.269
  C      -44.655     -25.515      -9.387
  O      -45.454     -26.396      -9.697
  N      -44.659     -24.968      -8.131
  C      -43.879     -23.935      -7.701
  O      -43.954     -23.454      -6.579
  C      -42.925     -23.406      -8.689
  C      -42.886     -23.952      -9.906
  O      -40.374     -20.999     -14.537
  O      -40.558     -20.443     -11.994
  H      -39.883     -21.630     -15.092
  H      -45.690     -26.867     -12.693
  H      -45.318     -25.343      -7.466
  H      -42.294     -22.580      -8.387
  H      -42.197     -23.568     -10.649
  H      -43.712     -26.651     -11.536
  H      -45.765     -24.726     -11.891
  H      -44.188     -23.078     -12.741
  H      -42.942     -25.371     -14.346
  H      -40.860     -24.059     -14.071
  H      -42.083     -23.144     -14.980
  P      -46.340     -22.907     -14.417
  C      -47.473     -24.355     -16.274
  O      -47.491     -23.888     -14.944
  O      -46.168     -21.832     -15.590
  O      -46.568     -22.317     -13.065
  H      -45.791     -22.214     -16.400
  H      -48.093     -25.253     -16.339
  H      -46.458     -24.603     -16.597
  H      -47.889     -23.591     -16.936
  H      -37.302     -22.654     -12.208
  H      -38.380     -21.729     -11.191
  H      -37.754     -21.029     -12.664

 3  4  5  6  7  8  9  10  11  12  13  24  28  29  30  31  32 0
 6-311+G(2d,p)
 ****
 33  34 0
 6-311+G(2d,p)
 ****
 1  2  14  15  16  17  18  19  20  21  22  23  25  26  27 0
 3-21G
 ****
 35  36  37  38  39  40  41  42  43  44  45 0
 3-21G
 ****


