%nproc=1
%NoSave
%Mem=1900MB
#P OB98/GEN NMR

erre ene a

0 1
  C      510.120    -747.944     907.378
  O      510.625    -748.724     906.326
  H      510.878    -747.888     908.168
  H      509.217    -748.414     907.795
  H      509.888    -746.943     907.036
  P      509.702    -748.866     905.013
  C      508.174    -750.558     906.268
  O      508.253    -749.331     905.534
  C      506.861    -751.284     905.949
  O      505.746    -750.486     906.445
  C      506.624    -751.530     904.436
  O      505.964    -752.786     904.298
  C      505.646    -750.427     904.073
  O      504.901    -750.719     902.891
  C      504.815    -750.375     905.354
  N      500.686    -748.052     903.631
  C      501.171    -749.332     903.389
  N      500.437    -750.089     902.544
  N      502.266    -749.789     903.909
  C      502.875    -748.920     904.755
  C      502.504    -747.636     905.088
  C      501.295    -747.120     904.474
  O      500.816    -745.992     904.638
  N      503.389    -747.072     905.957
  C      504.305    -748.009     906.149
  N      504.045    -749.143     905.451
  O      510.293    -750.186     904.311
  O      509.706    -747.701     904.092
  H      504.332    -749.954     902.689
  H      510.970    -749.947     903.649
  H      499.839    -747.743     903.193
  H      505.179    -747.899     906.791
  H      504.098    -751.203     905.422
  H      506.194    -749.484     903.923
  H      499.564    -749.812     902.138
  H      507.533    -751.517     903.838
  H      500.761    -751.046     902.385
  H      506.855    -752.231     906.506
  H      508.202    -750.329     907.345
  H      509.027    -751.197     906.004
  P      506.864    -754.107     904.082
  C      507.255    -753.725     901.531
  O      507.825    -753.838     902.829
  O      505.799    -755.154     903.505
  O      507.503    -754.601     905.328
  H      506.079    -756.061     903.721
  H      508.030    -753.547     900.815
  H      506.562    -752.910     901.516
  H      506.744    -754.633     901.286

 6  7  8  9  10  11  12  13  14  15  26  29  33  34 0
 6-311+G(2d,p)
 ****
 36  38  39  40  41 0
 6-311+G(2d,p)
 ****
 1  2  3  4  5  16  17  18  19  20  21  22  23  24  25 0
 3-21G
 ****
 27  28  30  31  32  35  37  42  43  44  45  46  47 0
 3-21G
 ****
 48  49 0
 3-21G
 ****


