%nproc=1
%NoSave
%Mem=1900MB
#P OB98/GEN NMR

erre ene a

0 1
  C      210.446      28.392     105.658
  O      209.081      27.967     105.570
  P      208.136      28.787     104.559
  C      205.884      28.797     105.864
  O      206.632      28.270     104.775
  C      204.811      27.807     106.310
  O      204.059      27.316     105.183
  C      205.354      26.560     106.997
  O      205.685      26.811     108.353
  C      204.159      25.624     106.893
  O      203.229      25.898     107.957
  C      203.554      26.004     105.532
  N      201.913      22.222     102.581
  C      201.254      22.925     103.571
  N      199.960      22.588     103.786
  N      201.808      23.870     104.286
  C      203.092      24.120     103.938
  C      203.854      23.495     102.981
  C      203.239      22.428     102.218
  O      203.787      21.755     101.353
  N      205.119      24.030     102.914
  C      205.105      24.996     103.809
  N      203.907      25.081     104.471
  O      208.532      28.180     103.127
  O      208.331      30.267     104.609
  H      202.409      25.409     107.751
  H      208.367      28.841     102.428
  H      201.439      21.500     102.069
  H      205.938      25.660     104.015
  H      202.462      26.078     105.579
  H      204.444      24.570     106.985
  H      199.453      21.921     103.225
  H      206.202      26.144     106.439
  H      199.451      23.117     104.486
  H      204.122      28.334     106.985
  H      205.412      29.735     105.567
  H      206.570      29.031     106.686
  P      207.234      27.052     108.698
  C      206.858      25.721     110.894
  O      207.342      26.905     110.290
  O      207.424      28.618     108.440
  O      208.184      26.229     107.891
  H      208.345      28.811     108.179
  H      207.144      24.833     110.325
  H      205.767      25.774     110.970
  H      207.279      25.641     111.903
  H      210.968      27.773     106.358
  H      210.482      29.410     105.986
  H      210.908      28.310     104.696

 3  4  5  6  7  8  9  10  11  12  23  26  30  31  33  0
 6-311+G(2d,p)
 ****
 35  36  37  38 0
 6-311+G(2d,p)
 ****
 1  2  13  14  15  16  17  18  19  20  21  22  24  25  27  28  29 0
 3-21G
 ****
 32  34  39  40  41  42  43  44  45  46  47  48  49 0
 3-21G
 ****


