%nproc=1
%NoSave
%Mem=1900MB
#P OB98/GEN NMR

erre ene a

0 1
  C      773.487    -477.899     277.200
  O      772.212    -478.103     277.783
  H      773.450    -476.999     276.593
  H      773.760    -478.745     276.560
  H      774.245    -477.765     277.983
  P      771.977    -479.420     278.674
  C      770.511    -478.496     280.603
  O      770.554    -479.229     279.382
  C      769.076    -478.339     281.096
  O      768.255    -477.730     280.067
  C      768.383    -479.658     281.437
  O      768.859    -480.158     282.676
  C      766.922    -479.225     281.424
  O      766.579    -478.535     282.627
  C      766.909    -478.255     280.208
  N      766.473    -478.887     278.976
  C      765.149    -478.625     278.576
  O      764.426    -477.922     279.289
  N      764.685    -479.194     277.410
  C      765.474    -479.921     276.682
  N      764.957    -480.442     275.536
  C      766.885    -480.181     277.035
  C      767.314    -479.659     278.179
  O      773.087    -479.797     279.602
  O      771.699    -480.568     277.594
  H      765.644    -478.256     282.529
  H      772.524    -481.039     277.376
  H      767.522    -480.792     276.378
  H      768.336    -479.801     278.512
  H      766.254    -477.409     280.408
  H      766.245    -480.075     281.333
  H      768.544    -480.394     280.644
  H      769.085    -477.661     281.954
  H      763.994    -480.220     275.327
  H      770.952    -477.510     280.402
  H      765.507    -480.877     274.813
  H      771.119    -478.992     281.369
  P      769.485    -481.625     282.806
  C      769.846    -481.038     285.283
  O      769.364    -482.009     284.371
  O      770.837    -481.799     282.220
  O      768.359    -482.576     282.149
  H      768.411    -482.513     281.151
  H      769.718    -481.394     286.284
  H      769.300    -480.127     285.156
  H      770.885    -480.860     285.098

 6  7  8  9  10  11  12  13  14  15  16  26  30  31  32  33  35 0
 6-311+G(2d,p)
 ****
 37  38 0
 6-311+G(2d,p)
 ****
 1  2  3  4  5  17  18  19  20  21  22  23  24  25 0
 3-21G
 ****
 27  28  29  34  36  39  40  41  42  43  44  45  46 0
 3-21G
 ****


