%nproc=1
%NoSave
%Mem=1900MB
#P OB98/GEN NMR

erre ene a

0 1
  C      320.160     159.289    -151.879
  O      320.373     159.824    -150.590
  H      320.776     158.392    -151.989
  H      320.452     160.006    -152.650
  H      319.112     159.008    -152.007
  P      319.667     161.218    -150.219
  C      317.619     160.025    -149.176
  O      318.095     160.875    -150.207
  C      316.223     159.508    -149.524
  O      315.733     158.613    -148.502
  C      315.151     160.588    -149.640
  O      315.251     161.354    -150.830
  C      313.901     159.724    -149.607
  O      313.727     159.082    -150.884
  C      314.279     158.690    -148.517
  N      313.773     159.047    -147.192
  C      312.523     158.522    -146.837
  O      311.903     157.796    -147.616
  N      311.987     158.858    -145.617
  C      312.628     159.667    -144.832
  N      312.030     160.005    -143.656
  C      313.950     160.228    -145.159
  C      314.457     159.889    -146.344
  O      320.058     162.398    -151.050
  O      319.965     161.414    -148.658
  H      314.495     158.501    -151.020
  H      319.559     162.272    -148.384
  H      314.441     160.905    -144.472
  H      315.419     160.275    -146.663
  H      313.908     157.694    -148.781
  H      312.990     160.290    -149.401
  H      315.150     161.237    -148.755
  H      316.308     158.922    -150.449
  H      311.105     159.635    -143.484
  H      317.605     160.595    -148.241
  H      312.323     160.824    -143.133
  H      318.282     159.164    -149.058
  P      313.967     162.208    -151.281
  C      314.514     164.231    -149.734
  O      313.611     163.187    -150.061
  O      312.790     161.124    -151.251
  O      314.080     162.897    -152.605
  H      312.656     160.726    -152.134
  H      314.131     164.787    -148.904
  H      314.628     164.881    -150.576
  H      315.464     163.813    -149.475

 6  7  8  9  10  11  12  13  14  15  16  26  30  31  32  33  35 0
 6-311+G(2d,p)
 ****
 37  38 0
 6-311+G(2d,p)
 ****
 1  2  3  4  5  17  18  19  20  21  22  23  24  25 0
 3-21G
 ****
 27  28  29  34  36  39  40  41  42  43  44  45  46 0
 3-21G
 ****


