%nproc=1
%NoSave
%Mem=1900MB
#P OB98/GEN NMR

erre ene a

0 1
  C     -131.163     234.371      57.593
  O     -131.787     234.195      56.318
  P     -133.266     233.563      56.300
  C     -133.037     231.024      55.718
  O     -133.092     232.023      56.722
  C     -133.221     229.626      56.326
  O     -134.582     229.492      56.844
  C     -132.980     228.468      55.347
  O     -132.345     227.421      56.099
  C     -134.382     228.056      54.946
  O     -134.426     226.723      54.455
  C     -135.133     228.290      56.269
  N     -136.578     228.393      56.087
  C     -137.272     227.212      55.870
  O     -136.717     226.120      55.757
  N     -138.629     227.325      55.745
  C     -139.339     228.493      55.737
  O     -140.555     228.541      55.625
  C     -138.532     229.722      55.854
  C     -137.217     229.615      56.016
  O     -133.573     233.513      54.733
  O     -134.239     234.345      57.115
  H     -132.795     233.296      54.190
  H     -135.360     226.476      54.288
  H     -139.161     226.471      55.626
  H     -139.055     230.674      55.796
  H     -136.595     230.504      56.086
  H     -134.934     227.472      56.969
  H     -134.760     228.727      54.165
  H     -132.345     228.752      54.501
  H     -132.541     229.542      57.181
  H     -132.067     231.057      55.209
  H     -133.810     231.227      54.957
  P     -130.898     226.909      55.615
  C     -131.536     225.337      53.616
  O     -131.018     226.573      54.056
  O     -130.885     225.449      56.292
  O     -129.748     227.757      56.045
  H     -131.701     224.952      56.144
  H     -131.750     225.400      52.549
  H     -132.462     225.092      54.146
  H     -130.799     224.541      53.783
  H     -130.191     234.797      57.458
  H     -131.073     233.422      58.080
  H     -131.759     235.025      58.194

 3  4  5  6  7  8  9  10  11  12  13  24  28  29  30  31  32 0
 6-311+G(2d,p)
 ****
 33  34 0
 6-311+G(2d,p)
 ****
 1  2  14  15  16  17  18  19  20  21  22  23  25  26  27 0
 3-21G
 ****
 35  36  37  38  39  40  41  42  43  44  45 0
 3-21G
 ****


