%nproc=1
%NoSave
%Mem=1900MB
#P OB98/GEN NMR

erre ene a

0 1
  C     -497.361     347.655    1008.622
  O     -498.681     347.377    1009.087
  P     -499.118     345.843    1009.214
  C     -500.819     345.644    1011.195
  O     -500.606     345.859    1009.809
  C     -502.313     345.405    1011.485
  O     -503.064     346.617    1011.232
  C     -502.943     344.356    1010.576
  O     -502.555     343.045    1010.969
  C     -504.404     344.665    1010.770
  O     -504.905     344.097    1011.998
  C     -504.399     346.201    1010.872
  N     -504.852     346.872    1009.643
  C     -506.213     346.759    1009.351
  O     -506.993     346.112    1010.058
  N     -506.633     347.384    1008.216
  C     -505.849     348.086    1007.346
  O     -506.273     348.645    1006.353
  C     -504.413     348.135    1007.677
  C     -503.981     347.536    1008.806
  O     -498.205     345.367    1010.442
  O     -498.925     345.069    1007.953
  H     -498.070     346.072    1011.117
  H     -504.409     344.507    1012.715
  H     -507.613     347.336    1007.996
  H     -503.753     348.652    1006.996
  H     -502.916     347.538    1009.057
  H     -505.049     346.523    1011.698
  H     -505.039     344.266    1009.948
  H     -502.662     344.516    1009.531
  H     -502.422     345.125    1012.526
  H     -500.491     346.507    1011.767
  H     -500.212     344.789    1011.520
  P     -501.726     342.179    1009.877
  C     -500.001     341.091    1011.535
  O     -501.116     340.925    1010.679
  O     -500.464     343.127    1009.623
  O     -502.519     341.840    1008.665
  H     -500.079     343.494    1010.435
  H     -499.956     340.242    1012.210
  H     -500.099     342.005    1012.114
  H     -499.080     341.126    1010.953
  H     -497.210     348.714    1008.588
  H     -497.234     347.245    1007.642
  H     -496.648     347.214    1009.287

 3  4  5  6  7  8  9  10  11  12  13  24  28  29  30  31  32 0
 6-311+G(2d,p)
 ****
 33  34 0
 6-311+G(2d,p)
 ****
 1  2  14  15  16  17  18  19  20  21  22  23  25  26  27 0
 3-21G
 ****
 35  36  37  38  39  40  41  42  43  44  45 0
 3-21G
 ****


