%nproc=1
%NoSave
%Mem=1900MB
#P OB98/GEN NMR

erre ene a

0 1
  C       59.976    -236.556      61.043
  O       59.122    -237.605      60.563
  P       57.543    -237.469      60.817
  C       55.661    -239.190      60.313
  O       56.926    -238.941      60.911
  C       55.418    -240.697      60.180
  O       56.361    -241.316      59.274
  C       55.557    -241.453      61.503
  O       54.359    -241.379      62.276
  C       55.763    -242.876      61.007
  O       54.496    -243.459      60.639
  C       56.631    -242.661      59.760
  N       60.522    -245.897      59.836
  C       59.197    -246.101      59.493
  N       58.863    -247.350      59.107
  N       58.285    -245.168      59.531
  C       58.770    -243.956      59.916
  C       60.054    -243.633      60.280
  C       61.053    -244.680      60.254
  O       62.237    -244.561      60.559
  N       60.157    -242.308      60.623
  C       58.939    -241.831      60.438
  N       58.053    -242.795      60.030
  O       57.000    -236.944      59.403
  O       57.179    -236.539      61.929
  H       53.902    -243.341      61.404
  H       56.184    -236.425      59.533
  H       61.179    -246.654      59.795
  H       58.650    -240.796      60.597
  H       56.384    -243.353      58.949
  H       56.203    -243.522      61.771
  H       59.525    -248.108      59.010
  H       56.431    -241.113      62.064
  H       57.906    -247.513      58.816
  H       54.404    -240.849      59.788
  H       55.611    -238.723      59.324
  H       54.883    -238.708      60.908
  P       54.295    -240.297      63.456
  C       52.770    -238.262      63.964
  O       52.991    -239.418      63.179
  O       55.514    -239.316      63.104
  O       54.424    -240.866      64.830
  H       55.894    -238.948      63.919
  H       51.931    -237.701      63.530
  H       53.650    -237.621      63.972
  H       52.505    -238.548      64.988
  H       60.993    -236.785      60.801
  H       59.872    -236.469      62.104
  H       59.699    -235.631      60.581

 3  4  5  6  7  8  9  10  11  12  23  26  30  31 0
 6-311+G(2d,p)
 ****
 33  35  36  37  38 0
 6-311+G(2d,p)
 ****
 1  2  13  14  15  16  17  18  19  20  21  22  24  25 0
 3-21G
 ****
 27  28  29  32  34  39  40  41  42  43  44  45  46  47  48  49 0
 3-21G
 ****


