%nproc=1
%NoSave
%Mem=1900MB
#P OB98/GEN NMR

erre ene a

0 1
  C      864.972     -34.043    -247.166
  O      865.313     -32.645    -247.156
  P      864.980     -31.651    -248.366
  C      867.370     -30.813    -248.856
  O      866.076     -30.472    -248.398
  C      868.376     -29.673    -248.636
  O      867.827     -28.413    -249.167
  C      868.742     -29.426    -247.162
  O      870.143     -29.103    -247.136
  C      867.895     -28.214    -246.818
  O      868.326     -27.515    -245.665
  C      868.020     -27.419    -248.133
  N      867.065     -26.326    -248.294
  C      867.386     -25.094    -247.700
  O      868.405     -24.952    -247.034
  N      866.529     -24.030    -247.896
  C      865.442     -24.193    -248.579
  N      864.644     -23.100    -248.725
  C      865.046     -25.470    -249.199
  C      865.902     -26.483    -249.027
  O      863.571     -31.148    -248.360
  O      865.269     -32.483    -249.703
  H      864.625     -32.232    -250.380
  H      868.029     -28.026    -244.880
  H      864.138     -25.557    -249.769
  H      865.703     -27.456    -249.465
  H      869.041     -27.051    -248.225
  H      866.858     -28.548    -246.637
  H      868.571     -30.293    -246.512
  H      869.275     -29.886    -249.224
  H      864.940     -22.232    -248.294
  H      867.316     -31.034    -249.938
  H      863.787     -23.103    -249.254
  H      867.708     -31.727    -248.343
  P      871.129     -29.894    -246.139
  C      872.872     -27.974    -246.085
  O      872.608     -29.330    -246.366
  O      871.213     -31.332    -246.843
  O      870.650     -30.045    -244.725
  H      871.424     -32.017    -246.170
  H      873.818     -27.900    -245.535
  H      872.098     -27.501    -245.481
  H      872.980     -27.414    -247.024
  H      865.295     -34.496    -246.252
  H      865.455     -34.522    -247.992
  H      863.912     -34.151    -247.262

 3  4  5  6  7  8  9  10  11  12  13  24  27  28  29  30  32 0
 6-311+G(2d,p)
 ****
 34  35 0
 6-311+G(2d,p)
 ****
 1  2  14  15  16  17  18  19  20  21  22  23  25  26 0
 3-21G
 ****
 31  33  36  37  38  39  40  41  42  43  44  45  46 0
 3-21G
 ****


