%nproc=1
%NoSave
%Mem=1900MB
#P OB98/GEN NMR

erre ene a

0 1
  C       26.579     -14.063     -15.609
  O       25.986     -14.274     -16.879
  P       26.945     -14.610     -18.117
  C       26.944     -12.185     -19.044
  O       27.713     -13.261     -18.528
  C       27.557     -11.650     -20.340
  O       28.842     -11.038     -20.053
  C       27.794     -12.732     -21.398
  O       27.602     -12.170     -22.704
  C       29.269     -13.048     -21.254
  O       29.803     -13.612     -22.452
  C       29.824     -11.669     -20.900
  N       34.302      -9.398     -20.336
  C       33.132      -8.906     -20.876
  N       33.192      -7.669     -21.416
  N       32.002      -9.563     -20.881
  C       32.094     -10.790     -20.311
  C       33.193     -11.381     -19.729
  C       34.439     -10.646     -19.742
  O       35.516     -11.037     -19.306
  N       32.889     -12.619     -19.227
  C       31.621     -12.800     -19.540
  N       31.105     -11.733     -20.231
  O       25.912     -14.835     -19.319
  O       27.812     -15.808     -17.926
  H       29.496     -14.538     -22.490
  H       25.838     -15.787     -19.518
  H       35.150      -8.857     -20.366
  H       31.042     -13.686     -19.317
  H       29.941     -11.042     -21.792
  H       29.422     -13.766     -20.441
  H       34.046      -7.139     -21.503
  H       27.163     -13.621     -21.288
  H       32.359      -7.304     -21.858
  H       26.907     -10.861     -20.734
  H       26.915     -11.382     -18.306
  H       25.917     -12.522     -19.224
  P       26.956     -13.148     -23.802
  C       29.203     -14.071     -24.738
  O       28.017     -14.328     -24.013
  O       27.056     -12.299     -25.154
  O       25.559     -13.574     -23.497
  H       26.369     -12.587     -25.784
  H       30.061     -14.205     -24.073
  H       29.227     -13.058     -25.148
  H       29.277     -14.786     -25.561
  H       25.816     -13.850     -14.890
  H       27.257     -13.237     -15.665
  H       27.112     -14.942     -15.314

 3  4  5  6  7  8  9  10  11  12  23  26  30  31 0
 6-311+G(2d,p)
 ****
 33  35  36  37  38 0
 6-311+G(2d,p)
 ****
 1  2  13  14  15  16  17  18  19  20  21  22  24  25 0
 3-21G
 ****
 27  28  29  32  34  39  40  41  42  43  44  45  46  47  48  49 0
 3-21G
 ****


