%nproc=1
%NoSave
%Mem=1900MB
#P OB98/GEN NMR

erre ene a

0 1
  C     -243.940     444.694     141.092
  O     -244.949     443.980     140.425
  P     -245.615     444.448     139.051
  C     -244.730     442.396     137.690
  O     -245.850     443.154     138.131
  C     -245.061     440.894     137.653
  O     -245.174     440.414     139.016
  C     -246.417     440.629     136.972
  O     -246.421     439.507     136.102
  C     -247.391     440.612     138.140
  O     -248.615     439.954     137.851
  C     -246.536     439.984     139.244
  N     -249.990     439.445     142.936
  C     -249.846     438.720     141.770
  N     -250.848     437.862     141.471
  N     -248.826     438.850     140.962
  C     -247.959     439.823     141.331
  C     -247.996     440.601     142.468
  C     -249.107     440.423     143.370
  O     -249.338     441.121     144.352
  N     -246.982     441.529     142.485
  C     -246.353     441.335     141.344
  N     -246.929     440.324     140.601
  O     -245.036     445.669     138.414
  O     -247.121     444.806     139.521
  H     -249.051     440.440     137.120
  H     -247.419     445.555     138.971
  H     -250.845     439.357     143.479
  H     -245.497     441.901     140.994
  H     -246.564     438.894     139.189
  H     -247.635     441.652     138.387
  H     -251.707     437.850     141.996
  H     -246.674     441.468     136.304
  H     -250.891     437.512     140.516
  H     -244.239     440.357     137.179
  H     -243.935     442.587     138.419
  H     -244.383     442.739     136.716
  P     -247.469     439.132     134.956
  C     -245.665     437.544     134.055
  O     -247.042     437.726     134.312
  O     -247.177     440.168     133.765
  O     -248.901     439.214     135.374
  H     -248.024     440.448     133.366
  H     -245.541     436.694     133.379
  H     -245.139     437.343     134.984
  H     -245.234     438.437     133.577
  H     -243.665     444.173     141.985
  H     -244.301     445.669     141.345
  H     -243.086     444.784     140.454

 3  4  5  6  7  8  9  10  11  12  23  26  30  31 0
 6-311+G(2d,p)
 ****
 33  35  36  37  38 0
 6-311+G(2d,p)
 ****
 1  2  13  14  15  16  17  18  19  20  21  22  24  25 0
 3-21G
 ****
 27  28  29  32  34  39  40  41  42  43  44  45  46  47  48  49 0
 3-21G
 ****


