%nproc=1
%NoSave
%Mem=1900MB
#P OB98/GEN NMR

erre ene a

0 1
  C     -412.428    -240.414    -124.281
  O     -412.168    -241.098    -125.492
  P     -413.224    -241.080    -126.697
  C     -411.598    -241.729    -128.564
  O     -412.729    -242.125    -127.806
  C     -411.197    -242.807    -129.576
  O     -410.419    -243.836    -128.907
  C     -412.392    -243.494    -130.260
  O     -412.020    -243.730    -131.624
  C     -412.508    -244.807    -129.504
  O     -413.187    -245.806    -130.255
  C     -411.030    -245.101    -129.211
  N     -410.860    -246.053    -128.122
  C     -411.050    -247.401    -128.430
  O     -411.473    -247.733    -129.539
  N     -410.764    -248.344    -127.463
  C     -410.503    -247.949    -126.258
  N     -410.156    -248.907    -125.347
  C     -410.537    -246.532    -125.842
  C     -410.676    -245.646    -126.823
  O     -413.558    -239.726    -127.222
  O     -414.528    -241.792    -126.084
  H     -415.300    -241.209    -126.215
  H     -414.063    -245.458    -130.519
  H     -410.441    -246.268    -124.796
  H     -410.690    -244.581    -126.622
  H     -410.533    -245.497    -130.110
  H     -413.058    -244.645    -128.574
  H     -413.304    -242.895    -130.232
  H     -410.554    -242.344    -130.331
  H     -410.107    -249.865    -125.679
  H     -410.765    -241.567    -127.877
  H     -409.641    -248.683    -124.497
  H     -411.801    -240.782    -129.071
  P     -413.153    -243.603    -132.757
  C     -411.528    -242.409    -134.397
  O     -412.420    -243.491    -134.176
  O     -413.665    -242.094    -132.526
  O     -414.305    -244.548    -132.657
  H     -414.579    -242.018    -132.853
  H     -411.177    -242.457    -135.432
  H     -410.667    -242.489    -133.730
  H     -412.036    -241.455    -134.240
  H     -411.605    -240.549    -123.611
  H     -413.319    -240.804    -123.835
  H     -412.557    -239.371    -124.481

 3  4  5  6  7  8  9  10  11  12  13  24  27  28  29  30  32 0
 6-311+G(2d,p)
 ****
 34  35 0
 6-311+G(2d,p)
 ****
 1  2  14  15  16  17  18  19  20  21  22  23  25  26 0
 3-21G
 ****
 31  33  36  37  38  39  40  41  42  43  44  45  46 0
 3-21G
 ****


