%nproc=1
%NoSave
%Mem=1900MB
#P OB98/GEN NMR

erre ene a

0 1
  C       61.213    -182.954    -397.314
  O       60.040    -182.739    -396.552
  H       61.814    -182.041    -397.293
  H       60.965    -183.187    -398.353
  H       61.796    -183.769    -396.877
  P       58.864    -183.827    -396.652
  C       56.803    -182.314    -397.031
  O       57.549    -183.084    -396.091
  C       55.304    -182.576    -396.897
  O       54.978    -183.915    -397.329
  C       54.779    -182.487    -395.471
  O       54.823    -181.202    -394.902
  C       53.446    -183.210    -395.583
  O       52.409    -182.362    -396.076
  C       53.776    -184.309    -396.628
  N       53.911    -185.624    -396.025
  C       53.100    -186.626    -396.550
  O       52.289    -186.435    -397.460
  N       53.224    -187.862    -395.972
  C       54.024    -188.172    -394.913
  O       54.075    -189.300    -394.429
  C       54.834    -187.066    -394.372
  C       54.738    -185.862    -394.940
  O       59.141    -185.150    -395.998
  O       58.571    -183.930    -398.223
  H       52.241    -181.688    -395.389
  H       58.040    -184.738    -398.432
  H       52.658    -188.606    -396.355
  H       55.471    -187.278    -393.527
  H       55.327    -185.033    -394.563
  H       52.977    -184.360    -397.384
  H       53.105    -183.608    -394.623
  H       55.418    -183.119    -394.835
  H       54.777    -181.876    -397.558
  H       57.134    -182.601    -398.035
  H       57.017    -181.247    -396.880
  P       55.505    -180.872    -393.499
  C       53.287    -181.211    -392.151
  O       54.372    -180.352    -392.491
  O       56.806    -180.134    -393.540
  O       55.809    -182.355    -392.928
  H       56.641    -182.303    -392.415
  H       52.631    -180.706    -391.473
  H       53.666    -182.097    -391.687
  H       52.750    -181.475    -393.038

 6  7  8  9  10  11  12  13  14  15  16  26  31  32  33  34  35 0
 6-311+G(2d,p)
 ****
 36  37 0
 6-311+G(2d,p)
 ****
 1  2  3  4  5  17  18  19  20  21  22  23  24  25 0
 3-21G
 ****
 27  28  29  30  38  39  40  41  42  43  44  45 0
 3-21G
 ****


