%nproc=1
%NoSave
%Mem=1900MB
#P OB98/GEN NMR

erre ene a

0 1
  C      170.482    -932.255    -517.218
  O      171.398    -933.130    -517.837
  H      171.020    -931.377    -516.855
  H      170.017    -932.754    -516.364
  H      169.710    -931.925    -517.919
  P      170.790    -934.282    -518.781
  C      170.940    -936.009    -516.848
  O      171.303    -935.682    -518.183
  C      170.974    -937.525    -516.648
  O      169.897    -938.124    -517.440
  C      172.297    -938.188    -517.073
  O      172.581    -939.267    -516.170
  C      171.947    -938.789    -518.423
  O      172.801    -939.873    -518.774
  C      170.494    -939.193    -518.192
  N      170.249    -942.362    -522.072
  C      170.900    -942.478    -520.867
  N      171.655    -943.577    -520.673
  N      170.817    -941.584    -519.915
  C      170.013    -940.535    -520.237
  C      169.317    -940.303    -521.391
  C      169.421    -941.295    -522.438
  O      168.890    -941.239    -523.536
  N      168.662    -939.100    -521.341
  C      168.987    -938.593    -520.157
  N      169.804    -939.434    -519.453
  O      171.640    -934.113    -520.126
  O      169.328    -934.191    -519.032
  H      173.735    -939.582    -518.668
  H      171.155    -933.546    -520.753
  H      170.356    -943.074    -522.783
  H      168.673    -937.625    -519.786
  H      170.409    -940.127    -517.601
  H      172.022    -938.028    -519.209
  H      171.742    -944.330    -521.345
  H      173.151    -937.508    -517.118
  H      172.111    -943.693    -519.782
  H      170.744    -937.739    -515.593
  H      169.937    -935.644    -516.648
  H      171.635    -935.517    -516.162
  P      173.387    -938.925    -514.823
  C      175.604    -939.222    -516.169
  O      174.873    -939.501    -514.972
  O      172.725    -939.912    -513.750
  O      173.278    -937.497    -514.412
  H      172.705    -939.468    -512.867
  H      176.571    -939.675    -516.110
  H      175.712    -938.164    -516.282
  H      175.075    -939.619    -517.010

 6  7  8  9  10  11  12  13  14  15  26  29  33  34 0
 6-311+G(2d,p)
 ****
 36  38  39  40  41 0
 6-311+G(2d,p)
 ****
 1  2  3  4  5  16  17  18  19  20  21  22  23  24  25 0
 3-21G
 ****
 27  28  30  31  32  35  37  42  43  44  45  46  47 0
 3-21G
 ****
 48  49 0
 3-21G
 ****


