%nproc=1
%NoSave
%Mem=1900MB
#P OB98/GEN NMR

erre ene a

0 1
  C     -370.467     130.211    -238.994
  O     -371.470     129.924    -238.018
  P     -372.653     131.003    -237.864
  C     -372.628     130.957    -235.264
  O     -373.376     130.739    -236.452
  C     -373.544     130.828    -234.041
  O     -374.770     131.574    -234.209
  C     -373.981     129.394    -233.757
  O     -372.927     128.651    -233.172
  C     -375.168     129.638    -232.835
  O     -374.720     129.926    -231.494
  C     -375.798     130.902    -233.445
  N     -380.903     130.632    -233.699
  C     -380.068     130.949    -232.693
  N     -378.713     130.993    -232.700
  C     -378.240     130.686    -233.921
  C     -378.969     130.342    -235.049
  C     -380.370     130.324    -234.903
  N     -381.222     129.987    -235.933
  N     -378.133     130.087    -236.114
  C     -376.914     130.244    -235.631
  N     -376.931     130.616    -234.314
  O     -373.729     130.527    -238.944
  O     -372.210     132.410    -238.099
  H     -374.320     129.104    -231.143
  H     -373.750     131.151    -239.691
  H     -380.537     131.194    -231.742
  H     -375.999     130.103    -236.195
  H     -376.149     131.601    -232.679
  H     -375.847     128.783    -232.773
  H     -374.312     128.908    -234.679
  H     -373.006     131.237    -233.172
  H     -372.169     131.947    -235.273
  H     -382.210     129.919    -235.733
  H     -380.834     129.663    -236.810
  H     -371.813     130.224    -235.221
  P     -372.734     127.129    -233.657
  C     -371.456     126.550    -231.495
  O     -371.387     126.663    -232.903
  O     -372.253     127.320    -235.159
  O     -373.922     126.246    -233.446
  H     -371.566     128.014    -235.237
  H     -370.489     126.199    -231.125
  H     -372.234     125.834    -231.209
  H     -371.670     127.526    -231.055
  H     -369.741     129.425    -239.001
  H     -369.988     131.137    -238.752
  H     -370.921     130.286    -239.960

 3  4  5  6  7  8  9  10  11  12  22  25  29  30  31  32 0
 6-311+G(2d,p)
 ****
 33  36  37 0
 6-311+G(2d,p)
 ****
 1  2  13  14  15  16  17  18  19  20  21  23  24  26 0
 3-21G
 ****
 27  28  34  35  38  39  40  41  42  43  44  45  46  47  48 0
 3-21G
 ****


