%nproc=1
%NoSave
%Mem=1900MB
#P OB98/GEN NMR

erre ene a

0 1
  C     -123.595     598.860     -48.731
  O     -124.352     599.881     -48.109
  P     -124.019     601.406     -48.515
  C     -124.237     603.306     -46.752
  O     -124.904     602.333     -47.552
  C     -125.074     604.581     -46.676
  O     -125.244     605.165     -47.981
  C     -126.485     604.372     -46.141
  O     -126.523     604.297     -44.726
  C     -127.171     605.642     -46.626
  O     -126.858     606.735     -45.748
  C     -126.518     605.852     -48.003
  N     -128.422     606.862     -52.577
  C     -127.482     607.553     -51.849
  N     -127.020     608.698     -52.385
  N     -127.016     607.147     -50.692
  C     -127.574     605.979     -50.273
  C     -128.524     605.205     -50.911
  C     -129.026     605.672     -52.188
  O     -129.898     605.138     -52.851
  N     -128.838     604.091     -50.179
  C     -128.082     604.191     -49.100
  N     -127.332     605.338     -49.088
  O     -124.733     601.569     -49.939
  O     -122.564     601.733     -48.576
  H     -127.289     606.532     -44.887
  H     -124.377     602.353     -50.403
  H     -128.747     607.217     -53.467
  H     -128.059     603.461     -48.297
  H     -126.318     606.908     -48.199
  H     -128.261     605.550     -46.648
  H     -127.378     609.097     -53.245
  H     -126.961     603.499     -46.603
  H     -126.369     609.257     -51.844
  H     -124.528     605.308     -46.046
  H     -123.259     603.532     -47.194
  H     -124.071     602.897     -45.750
  P     -127.132     602.958     -44.087
  C     -128.758     604.347     -42.607
  O     -127.711     603.389     -42.656
  O     -125.820     602.106     -43.724
  O     -128.062     602.213     -44.981
  H     -126.025     601.152     -43.722
  H     -129.202     604.322     -41.600
  H     -129.533     604.121     -43.347
  H     -128.355     605.348     -42.796
  H     -123.919     597.906     -48.371
  H     -122.559     598.994     -48.501
  H     -123.735     598.908     -49.791

 3  4  5  6  7  8  9  10  11  12  23  26  30  31 0
 6-311+G(2d,p)
 ****
 33  35  36  37  38 0
 6-311+G(2d,p)
 ****
 1  2  13  14  15  16  17  18  19  20  21  22  24  25 0
 3-21G
 ****
 27  28  29  32  34  39  40  41  42  43  44  45  46  47  48  49 0
 3-21G
 ****


