%nproc=1
%NoSave
%Mem=1900MB
#P OB98/GEN NMR

erre ene a

0 1
  C       70.229    -353.411     106.123
  O       71.240    -353.106     105.186
  H       70.667    -354.004     106.931
  H       69.444    -354.001     105.643
  H       69.805    -352.498     106.546
  P       70.856    -352.069     104.021
  C       70.731    -353.289     101.733
  O       70.045    -352.906     102.916
  C       71.878    -354.241     102.068
  O       71.427    -355.267     102.986
  C       72.462    -354.970     100.862
  O       73.408    -354.168     100.165
  C       73.136    -356.147     101.549
  O       74.376    -355.718     102.147
  C       72.114    -356.502     102.638
  N       70.783    -361.391     102.910
  C       71.878    -360.736     103.450
  N       72.747    -361.495     104.152
  N       72.102    -359.457     103.306
  C       71.159    -358.826     102.569
  C       70.033    -359.364     101.987
  C       69.787    -360.777     102.157
  O       68.824    -361.401     101.721
  N       69.305    -358.405     101.325
  C       69.997    -357.297     101.486
  N       71.136    -357.499     102.233
  O       72.261    -351.777     103.307
  O       70.206    -350.806     104.477
  H       74.155    -355.016     102.783
  H       72.279    -350.842     103.019
  H       70.664    -362.382     103.041
  H       69.720    -356.328     101.097
  H       72.593    -356.879     103.552
  H       73.378    -356.958     100.860
  H       72.658    -362.496     104.258
  H       71.671    -355.341     100.195
  H       73.537    -361.033     104.583
  H       72.655    -353.661     102.583
  H       71.134    -352.392     101.243
  H       70.022    -353.778     101.050
  P       73.798    -354.608      98.670
  C       76.266    -355.391      98.418
  O       74.945    -355.724      98.836
  O       74.594    -353.336      98.115
  O       72.644    -354.977      97.800
  H       74.564    -353.326      97.141
  H       76.915    -356.225      98.588
  H       76.615    -354.548      98.977
  H       76.260    -355.150      97.375

 6  7  8  9  10  11  12  13  14  15  26  29  33  34 0
 6-311+G(2d,p)
 ****
 36  38  39  40  41 0
 6-311+G(2d,p)
 ****
 1  2  3  4  5  16  17  18  19  20  21  22  23  24  25 0
 3-21G
 ****
 27  28  30  31  32  35  37  42  43  44  45  46  47 0
 3-21G
 ****
 48  49 0
 3-21G
 ****


