%nproc=1
%NoSave
%Mem=1900MB
#P OB98/GEN NMR

erre ene a

0 1
  C      383.363     313.305     258.799
  O      384.513     312.608     259.243
  P      384.842     312.508     260.811
  C      384.825     314.143     262.795
  O      384.992     313.997     261.385
  C      384.379     315.559     263.137
  O      383.151     315.895     262.448
  C      384.073     315.777     264.613
  O      385.249     315.823     265.392
  C      383.280     317.080     264.554
  O      384.159     318.208     264.454
  C      382.482     316.898     263.244
  N      381.090     316.544     263.490
  C      380.141     317.518     263.161
  O      380.498     318.628     262.767
  N      378.812     317.204     263.294
  C      378.465     316.077     263.825
  N      377.135     315.795     263.874
  C      379.438     315.091     264.340
  C      380.725     315.378     264.119
  O      385.959     311.583     261.167
  O      383.467     312.017     261.461
  H      383.648     311.251     262.045
  H      384.489     318.383     265.360
  H      379.101     314.192     264.832
  H      381.508     314.698     264.438
  H      382.513     317.818     262.656
  H      382.660     317.226     265.446
  H      383.423     314.969     264.972
  H      385.159     316.254     262.801
  H      376.495     316.483     263.500
  H      385.781     313.931     263.279
  H      376.778     314.840     263.960
  H      384.093     313.411     263.150
  P      385.069     315.691     266.984
  C      383.833     317.186     268.700
  O      384.643     317.129     267.542
  O      386.566     315.500     267.514
  O      384.194     314.553     267.417
  H      386.576     314.883     268.270
  H      383.925     318.183     269.139
  H      384.143     316.441     269.441
  H      382.791     317.018     268.425
  H      383.311     313.264     257.731
  H      383.421     314.326     259.114
  H      382.488     312.852     259.216

 3  4  5  6  7  8  9  10  11  12  13  24  27  28  29  30  32 0
 6-311+G(2d,p)
 ****
 34  35 0
 6-311+G(2d,p)
 ****
 1  2  14  15  16  17  18  19  20  21  22  23  25  26 0
 3-21G
 ****
 31  33  36  37  38  39  40  41  42  43  44  45  46 0
 3-21G
 ****


