%nproc=1
%NoSave
%Mem=1900MB
#P OB98/GEN NMR

erre ene a

0 1
  C      -61.752    -889.680      69.444
  O      -61.898    -891.060      69.123
  H      -61.648    -889.120      68.519
  H      -60.850    -889.540      70.051
  H      -62.631    -889.330      69.988
  P      -62.236    -892.060      70.331
  C      -60.831    -893.980      69.221
  O      -61.075    -893.170      70.361
  C      -59.411    -894.540      69.272
  O      -58.432    -893.520      69.002
  C      -59.009    -895.070      70.653
  O      -59.671    -896.270      70.991
  C      -57.510    -895.220      70.458
  O      -57.189    -896.410      69.736
  C      -57.186    -893.970      69.604
  N      -56.556    -892.910      70.391
  C      -55.244    -892.580      70.049
  O      -54.671    -893.170      69.120
  N      -54.588    -891.610      70.780
  C      -55.205    -891.010      71.756
  N      -54.499    -890.080      72.447
  C      -56.590    -891.310      72.135
  C      -57.207    -892.250      71.422
  O      -63.495    -892.870      69.766
  O      -62.462    -891.400      71.655
  H      -57.872    -896.530      69.049
  H      -63.342    -893.280      68.899
  H      -57.066    -890.770      72.949
  H      -58.235    -892.530      71.638
  H      -56.501    -894.220      68.785
  H      -56.977    -895.270      71.410
  H      -59.176    -894.300      71.418
  H      -59.321    -895.330      68.507
  H      -53.527    -889.920      72.165
  H      -60.979    -893.410      68.297
  H      -54.845    -889.560      73.238
  H      -61.560    -894.800      69.228
  P      -59.038    -897.290      72.054
  C      -60.801    -898.990      71.276
  O      -59.430    -898.760      71.548
  O      -59.363    -897.010      73.473
  O      -57.463    -897.220      71.722
  H      -57.224    -897.480      70.815
  H      -60.935    -900.000      70.948
  H      -61.130    -898.320      70.510
  H      -61.374    -898.825      72.165

 6  7  8  9  10  11  12  13  14  15  16  26  30  31  32  33  35 0
 6-311+G(2d,p)
 ****
 37  38 0
 6-311+G(2d,p)
 ****
 1  2  3  4  5  17  18  19  20  21  22  23  24  25 0
 3-21G
 ****
 27  28  29  34  36  39  40  41  42  43  44  45  46 0
 3-21G
 ****


