%nproc=1
%NoSave
%Mem=1900MB
#P OB98/GEN NMR

erre ene a

0 1
  C      236.714    -152.450    -253.576
  O      236.223    -151.391    -252.777
  H      237.789    -152.312    -253.718
  H      236.229    -152.447    -254.556
  H      236.547    -153.410    -253.081
  P      234.660    -151.366    -252.427
  C      233.360    -150.877    -250.251
  O      234.566    -151.363    -250.827
  C      232.937    -151.776    -249.093
  O      232.528    -153.068    -249.582
  C      234.042    -152.028    -248.067
  O      234.147    -150.933    -247.173
  C      233.522    -153.294    -247.411
  O      232.455    -152.964    -246.499
  C      232.967    -154.068    -248.619
  N      234.130    -158.874    -249.743
  C      233.081    -158.362    -248.998
  N      232.252    -159.269    -248.437
  N      232.883    -157.086    -248.804
  C      233.830    -156.304    -249.365
  C      234.922    -156.691    -250.111
  C      235.103    -158.104    -250.366
  O      236.008    -158.596    -251.035
  N      235.702    -155.619    -250.459
  C      235.060    -154.579    -249.956
  N      233.927    -154.945    -249.273
  O      233.817    -152.421    -253.081
  O      234.195    -149.889    -252.828
  H      232.127    -153.808    -246.139
  H      233.860    -149.861    -253.744
  H      234.243    -159.868    -249.839
  H      235.372    -153.546    -250.066
  H      232.096    -154.680    -248.359
  H      234.284    -153.826    -246.841
  H      232.521    -160.239    -248.316
  H      234.998    -152.256    -248.551
  H      231.509    -158.919    -247.848
  H      232.059    -151.318    -248.618
  H      232.596    -150.879    -251.035
  H      233.496    -149.854    -249.891
  P      235.386    -150.809    -246.160
  C      236.612    -148.821    -245.048
  O      235.517    -149.239    -245.856
  O      236.644    -151.461    -246.626
  O      234.835    -151.383    -244.775
  H      234.951    -152.362    -244.678
  H      236.580    -147.759    -244.925
  H      237.531    -149.097    -245.522
  H      236.549    -149.293    -244.090

 6  7  8  9  10  11  12  13  14  15  26  29  33  34 0
 6-311+G(2d,p)
 ****
 36  38  39  40  41 0
 6-311+G(2d,p)
 ****
 1  2  3  4  5  16  17  18  19  20  21  22  23  24  25 0
 3-21G
 ****
 27  28  30  31  32  35  37  42  43  44  45  46  47 0
 3-21G
 ****
 48  49 0
 3-21G
 ****


