%nproc=1
%NoSave
%Mem=1900MB
#P OB98/GEN NMR

erre ene a

0 1
  C      199.544    -114.441     193.250
  O      199.164    -113.125     192.888
  H      199.560    -115.055     192.346
  H      198.820    -114.859     193.951
  H      200.542    -114.448     193.695
  P      199.208    -111.975     194.004
  C      197.098    -111.052     192.841
  O      198.354    -110.739     193.439
  C      196.614    -109.858     192.013
  O      196.436    -108.703     192.860
  C      197.596    -109.423     190.924
  O      197.548    -110.305     189.818
  C      197.106    -108.014     190.636
  O      195.968    -108.037     189.762
  C      196.707    -107.528     192.053
  N      197.732    -106.686     192.669
  C      197.797    -105.365     192.242
  O      197.056    -104.908     191.364
  N      198.750    -104.590     192.836
  C      199.703    -105.023     193.713
  O      200.598    -104.303     194.146
  C      199.613    -106.433     194.107
  C      198.642    -107.188     193.581
  O      200.565    -111.621     194.514
  O      198.276    -112.549     195.175
  H      196.280    -108.403     188.913
  H      198.833    -112.860     195.911
  H      198.815    -103.625     192.530
  H      200.343    -106.809     194.812
  H      198.568    -108.233     193.858
  H      195.771    -106.962     192.008
  H      197.868    -107.398     190.159
  H      198.616    -109.369     191.331
  H      195.637    -110.110     191.578
  H      196.373    -111.256     193.632
  H      197.209    -111.939     192.209
  P      198.895    -110.661     189.025
  C      197.518    -111.291     186.932
  O      198.520    -111.705     187.866
  O      200.058    -111.042     189.875
  O      199.216    -109.320     188.206
  H      200.092    -108.972     188.478
  H      197.358    -112.067     186.213
  H      197.843    -110.403     186.431
  H      196.605    -111.093     187.453

 6  7  8  9  10  11  12  13  14  15  16  26  31  32  33  34  35 0
 6-311+G(2d,p)
 ****
 36  37 0
 6-311+G(2d,p)
 ****
 1  2  3  4  5  17  18  19  20  21  22  23  24  25 0
 3-21G
 ****
 27  28  29  30  38  39  40  41  42  43  44  45 0
 3-21G
 ****


