%nproc=1
%NoSave
%Mem=1900MB
#P OB98/GEN NMR

erre ene a

0 1
  C      -14.691      51.675     -36.943
  O      -14.804      50.282     -37.180
  P      -14.640      49.769     -38.693
  C      -12.571      49.480     -40.236
  O      -13.179      50.216     -39.184
  C      -11.888      50.418     -41.233
  O      -12.903      51.022     -42.083
  C      -11.090      51.562     -40.588
  O       -9.958      51.802     -41.432
  C      -12.078      52.713     -40.652
  O      -11.488      53.990     -40.480
  C      -12.712      52.452     -42.015
  N      -14.897      56.817     -43.530
  C      -13.609      56.405     -43.539
  N      -13.103      55.224     -43.127
  C      -14.082      54.421     -42.676
  C      -15.433      54.709     -42.588
  C      -15.837      55.975     -43.044
  N      -17.151      56.396     -43.026
  N      -16.128      53.648     -42.048
  C      -15.212      52.733     -41.810
  N      -13.965      53.147     -42.193
  O      -15.614      50.737     -39.510
  O      -14.973      48.325     -38.909
  H      -10.811      54.141     -41.168
  H      -16.079      50.254     -40.219
  H      -12.889      57.118     -43.929
  H      -15.394      51.769     -41.355
  H      -12.048      52.740     -42.839
  H      -12.818      52.592     -39.852
  H      -10.740      51.331     -39.578
  H      -11.236      49.819     -41.879
  H      -13.337      48.911     -40.771
  H      -17.308      57.381     -43.184
  H      -17.802      55.849     -42.477
  H      -11.856      48.766     -39.814
  P       -8.609      52.374     -40.777
  C       -6.916      51.368     -39.128
  O       -8.213      51.268     -39.681
  O       -9.193      53.546     -39.855
  O       -7.551      52.802     -41.733
  H       -9.924      53.231     -39.294
  H       -6.817      50.623     -38.335
  H       -6.760      52.363     -38.701
  H       -6.166      51.167     -39.898
  H      -14.821      51.871     -35.899
  H      -15.443      52.194     -37.500
  H      -13.723      52.012     -37.251

 3  4  5  6  7  8  9  10  11  12  22  25  29  30  31  32 0
 6-311+G(2d,p)
 ****
 33  36  37 0
 6-311+G(2d,p)
 ****
 1  2  13  14  15  16  17  18  19  20  21  23  24  26 0
 3-21G
 ****
 27  28  34  35  38  39  40  41  42  43  44  45  46  47  48 0
 3-21G
 ****


