%nproc=1
%NoSave
%Mem=1900MB
#P OB98/GEN NMR

erre ene a

0 1
  C      154.120     190.411      46.169
  O      153.609     189.935      47.396
  H      155.211     190.448      46.238
  H      153.750     191.419      45.968
  H      153.846     189.741      45.350
  P      152.020     189.788      47.558
  C      151.831     192.011      48.875
  O      151.498     191.305      47.691
  C      151.138     193.371      48.891
  O      151.665     194.240      47.866
  C      149.638     193.329      48.622
  O      148.874     192.830      49.707
  C      149.377     194.802      48.361
  O      149.377     195.521      49.607
  C      150.607     195.171      47.499
  N      150.332     195.096      46.065
  C      150.407     196.295      45.348
  O      150.680     197.351      45.917
  N      150.134     196.283      44.003
  C      149.792     195.171      43.425
  N      149.525     195.216      42.091
  C      149.682     193.888      44.145
  C      149.965     193.920      45.445
  O      151.552     188.851      48.626
  O      151.502     189.398      46.095
  H      149.259     196.464      49.390
  H      150.522     189.284      46.141
  H      149.365     192.996      43.625
  H      149.900     193.019      46.043
  H      150.965     196.179      47.739
  H      148.418     194.993      47.880
  H      149.421     192.771      47.703
  H      151.360     193.842      49.858
  H      149.609     196.109      41.624
  H      152.919     192.125      48.912
  H      149.181     194.416      41.576
  H      151.504     191.447      49.754
  P      147.531     192.024      49.342
  C      146.211     194.268      49.550
  O      146.495     193.109      48.781
  O      146.948     191.629      50.775
  O      147.724     190.839      48.450
  H      147.180     190.708      51.002
  H      145.504     194.878      49.028
  H      147.113     194.822      49.707
  H      145.802     193.978      50.495

 6  7  8  9  10  11  12  13  14  15  16  26  30  31  32  33  35 0
 6-311+G(2d,p)
 ****
 37  38 0
 6-311+G(2d,p)
 ****
 1  2  3  4  5  17  18  19  20  21  22  23  24  25 0
 3-21G
 ****
 27  28  29  34  36  39  40  41  42  43  44  45  46 0
 3-21G
 ****


