%nproc=1
%NoSave
%Mem=1900MB
#P OB98/GEN NMR

erre ene a

0 1
  C       -4.783     177.588     154.070
  O       -5.892     178.424     154.330
  H       -4.027     177.705     154.850
  H       -5.122     176.549     154.059
  H       -4.352     177.830     153.094
  P       -5.581     179.990     154.492
  C       -4.229     181.406     156.189
  O       -4.860     180.165     155.916
  C       -4.669     181.933     157.549
  O       -4.127     181.110     158.602
  C       -4.206     183.349     157.866
  O       -5.007     184.328     157.221
  C       -4.394     183.376     159.375
  O       -5.778     183.620     159.686
  C       -4.009     181.946     159.784
  N       -1.130     180.443     163.761
  C       -2.466     180.419     163.555
  N       -3.162     180.844     162.481
  C       -2.335     181.326     161.539
  C       -0.954     181.415     161.605
  C       -0.346     180.952     162.784
  N        1.016     180.997     162.990
  N       -0.444     181.950     160.444
  C       -1.495     182.182     159.685
  N       -2.663     181.827     160.307
  O       -7.028     180.637     154.729
  O       -4.881     180.625     153.337
  H       -6.290     182.905     159.265
  H       -7.057     181.513     154.300
  H       -3.058     179.996     164.363
  H       -1.458     182.598     158.685
  H       -4.702     181.540     160.530
  H       -3.806     184.153     159.868
  H       -3.143     183.481     157.632
  H       -5.764     181.862     157.599
  H       -4.504     182.132     155.417
  H        1.406     180.478     163.758
  H        1.597     181.374     162.248
  H       -3.143     181.262     156.169
  P       -4.468     185.842     157.218
  C       -4.247     187.679     159.037
  O       -4.804     186.421     158.677
  O       -5.517     186.597     156.273
  O       -3.067     186.015     156.745
  H       -5.099     187.388     155.879
  H       -4.555     187.935     160.029
  H       -4.588     188.429     158.354
  H       -3.179     187.620     158.999

 6  7  8  9  10  11  12  13  14  15  25  28  32  33  34  35 0
 6-311+G(2d,p)
 ****
 36  39  40 0
 6-311+G(2d,p)
 ****
 1  2  3  4  5  16  17  18  19  20  21  22  23  24 0
 3-21G
 ****
 26  27  29  30  31  37  38  41  42  43  44  45  46  47  48 0
 3-21G
 ****


