%nproc=1
%NoSave
%Mem=1900MB
#P OB98/GEN NMR

erre ene a

0 1
  C      165.115     -52.339    -175.585
  O      165.133     -53.303    -176.613
  P      166.221     -53.334    -177.778
  C      164.579     -52.133    -179.420
  O      165.463     -53.224    -179.186
  C      163.786     -52.340    -180.721
  O      164.718     -52.361    -181.832
  C      163.054     -53.693    -180.726
  O      161.735     -53.636    -181.256
  C      164.046     -54.614    -181.424
  O      163.453     -55.790    -181.953
  C      164.684     -53.669    -182.438
  N      167.585     -56.953    -185.014
  C      166.212     -56.802    -185.035
  N      165.521     -57.766    -185.683
  N      165.585     -55.820    -184.442
  C      166.398     -55.000    -183.740
  C      167.771     -55.050    -183.645
  C      168.456     -56.121    -184.329
  O      169.661     -56.358    -184.243
  N      168.258     -54.097    -182.789
  C      167.179     -53.493    -182.335
  N      166.024     -54.029    -182.860
  O      167.315     -54.343    -177.647
  O      166.888     -51.870    -177.641
  H      164.172     -56.433    -182.113
  H      167.833     -51.961    -177.877
  H      168.007     -57.779    -185.421
  H      167.169     -52.687    -181.610
  H      164.091     -53.602    -183.351
  H      164.777     -54.935    -180.673
  H      165.963     -58.607    -186.021
  H      162.898     -54.048    -179.702
  H      164.520     -57.814    -185.504
  H      163.108     -51.494    -180.869
  H      165.206     -51.240    -179.502
  H      163.902     -51.995    -178.574
  P      160.365     -54.104    -180.582
  C      159.342     -55.304    -182.603
  O      159.243     -54.204    -181.719
  O      159.882     -52.845    -179.719
  O      160.476     -55.311    -179.713
  H      159.499     -53.155    -178.876
  H      158.709     -55.113    -183.476
  H      158.989     -56.208    -182.104
  H      160.375     -55.444    -182.937
  H      164.291     -52.532    -174.930
  H      165.010     -51.364    -176.012
  H      166.030     -52.390    -175.033

 3  4  5  6  7  8  9  10  11  12  23  26  30  31 0
 6-311+G(2d,p)
 ****
 33  35  36  37  38 0
 6-311+G(2d,p)
 ****
 1  2  13  14  15  16  17  18  19  20  21  22  24  25 0
 3-21G
 ****
 27  28  29  32  34  39  40  41  42  43  44  45  46  47  48  49 0
 3-21G
 ****


