%nproc=1
%NoSave
%Mem=1900MB
#P OB98/GEN NMR

erre ene a

0 1
  C     -362.165     813.256    -125.064
  O     -361.890     811.925    -125.504
  P     -362.925     810.765    -125.129
  C     -362.717     808.403    -124.023
  O     -362.160     809.710    -124.203
  C     -361.921     807.620    -122.987
  O     -360.555     807.443    -123.460
  C     -361.848     808.270    -121.615
  O     -361.819     807.224    -120.620
  C     -360.494     808.967    -121.629
  O     -359.990     809.277    -120.346
  C     -359.680     807.923    -122.402
  N     -358.418     808.460    -122.933
  C     -357.256     808.119    -122.284
  O     -357.192     807.390    -121.276
  N     -356.094     808.679    -122.763
  C     -356.032     809.602    -123.762
  O     -354.980     810.182    -124.075
  C     -357.298     809.932    -124.426
  C     -358.436     809.347    -124.001
  O     -363.126     809.969    -126.514
  O     -364.233     811.243    -124.575
  H     -359.877     808.442    -119.866
  H     -363.946     810.248    -126.943
  H     -355.233     808.440    -122.308
  H     -357.270     810.646    -125.259
  H     -359.379     809.595    -124.456
  H     -359.471     807.064    -121.757
  H     -360.574     809.905    -122.196
  H     -362.674     808.964    -121.396
  H     -362.362     806.619    -122.923
  H     -362.699     807.887    -124.978
  H     -363.774     808.500    -123.706
  P     -363.171     806.926    -119.789
  C     -364.527     808.210    -117.953
  O     -363.415     808.189    -118.841
  O     -362.663     805.792    -118.791
  O     -364.330     806.485    -120.657
  H     -361.781     805.976    -118.413
  H     -364.741     807.213    -117.565
  H     -365.389     808.603    -118.461
  H     -364.278     808.862    -117.116
  H     -361.384     813.909    -125.393
  H     -362.219     813.274    -123.996
  H     -363.098     813.581    -125.474

 3  4  5  6  7  8  9  10  11  12  13  23  28  29  30  31  32 0
 6-311+G(2d,p)
 ****
 33  34 0
 6-311+G(2d,p)
 ****
 1  2  14  15  16  17  18  19  20  21  22  24  25  26 0
 3-21G
 ****
 27  35  36  37  38  39  40  41  42  43  44  45 0
 3-21G
 ****


