%nproc=1
%NoSave
%Mem=1900MB
#P OB98/GEN NMR

erre ene a

0 1
  C      231.352     186.346     385.993
  O      230.886     185.144     385.421
  H      230.580     187.111     385.879
  H      232.254     186.680     385.474
  H      231.561     186.222     387.060
  P      231.690     183.788     385.704
  C      232.173     182.623     383.453
  O      231.271     182.760     384.543
  C      231.592     181.702     382.378
  O      231.268     180.415     382.983
  C      230.307     182.236     381.725
  O      230.282     181.755     380.375
  C      229.235     181.551     382.549
  O      227.985     181.574     381.896
  C      229.867     180.173     382.755
  N      229.248     179.432     383.852
  C      227.886     179.187     383.746
  O      227.197     179.591     382.807
  N      227.315     178.499     384.782
  C      227.954     178.096     385.917
  O      227.386     177.511     386.830
  C      229.387     178.419     385.994
  C      229.961     179.060     384.973
  O      231.577     183.243     387.087
  O      233.205     184.141     385.324
  H      227.332     181.040     382.395
  H      233.819     183.612     385.869
  H      226.328     178.305     384.716
  H      229.920     178.123     386.887
  H      231.015     179.313     385.000
  H      229.777     179.565     381.843
  H      229.107     182.059     383.512
  H      230.237     183.324     381.746
  H      232.366     181.509     381.624
  H      233.107     182.200     383.842
  H      232.381     183.607     383.025
  P      230.450     182.735     379.116
  C      229.153     181.421     377.319
  O      230.431     181.857     377.772
  O      231.609     183.670     379.219
  O      229.072     183.549     379.046
  H      229.225     184.420     378.639
  H      229.269     180.849     376.422
  H      228.535     182.272     377.122
  H      228.695     180.814     378.072

 6  7  8  9  10  11  12  13  14  15  16  26  31  32  33  34  35 0
 6-311+G(2d,p)
 ****
 36  37 0
 6-311+G(2d,p)
 ****
 1  2  3  4  5  17  18  19  20  21  22  23  24  25 0
 3-21G
 ****
 27  28  29  30  38  39  40  41  42  43  44  45 0
 3-21G
 ****


