%nproc=1
%NoSave
%Mem=1900MB
#P OB98/GEN NMR

erre ene a

0 1
  C      427.318    -153.946    -439.971
  O      427.323    -155.347    -440.274
  P      426.170    -155.914    -441.236
  C      426.694    -154.988    -443.609
  O      426.771    -156.087    -442.714
  C      425.672    -155.266    -444.714
  O      425.156    -154.053    -445.290
  C      426.241    -156.056    -445.888
  O      426.274    -157.451    -445.613
  C      425.217    -155.755    -446.970
  O      424.055    -156.590    -446.792
  C      424.865    -154.293    -446.686
  N      425.065    -151.815    -451.167
  C      424.198    -152.730    -450.682
  N      424.220    -153.356    -449.489
  C      425.267    -152.945    -448.754
  C      426.236    -152.023    -449.118
  C      426.108    -151.442    -450.392
  N      426.993    -150.510    -450.881
  N      427.164    -151.860    -448.108
  C      426.753    -152.661    -447.146
  N      425.618    -153.344    -447.491
  O      425.179    -154.665    -441.384
  O      425.461    -157.109    -440.691
  H      423.824    -156.560    -445.847
  H      424.260    -154.978    -441.455
  H      423.373    -152.995    -451.336
  H      427.240    -152.778    -446.189
  H      423.800    -154.077    -446.844
  H      425.599    -155.955    -447.977
  H      427.224    -155.668    -446.180
  H      424.834    -155.826    -444.271
  H      427.678    -154.788    -444.050
  H      426.822    -150.115    -451.791
  H      427.763    -150.209    -450.296
  H      426.421    -154.085    -443.049
  P      427.585    -158.259    -446.067
  C      428.842    -158.407    -443.800
  O      428.061    -159.072    -444.774
  O      428.680    -157.101    -446.230
  O      427.414    -159.050    -447.320
  H      429.326    -157.348    -446.917
  H      428.817    -158.990    -442.875
  H      428.444    -157.407    -443.591
  H      429.875    -158.329    -444.143
  H      428.139    -153.718    -439.324
  H      426.400    -153.689    -439.485
  H      427.411    -153.385    -440.877

 3  4  5  6  7  8  9  10  11  12  22  25  29  30  31  32 0
 6-311+G(2d,p)
 ****
 33  36  37 0
 6-311+G(2d,p)
 ****
 1  2  13  14  15  16  17  18  19  20  21  23  24  26 0
 3-21G
 ****
 27  28  34  35  38  39  40  41  42  43  44  45  46  47  48 0
 3-21G
 ****


