%nproc=1
%NoSave
%Mem=1900MB
#P OB98/GEN NMR

erre ene a

0 1
  C      -31.412     -10.535    -188.662
  O      -31.751      -9.865    -189.860
  H      -32.084     -10.197    -187.870
  H      -30.383     -10.303    -188.374
  H      -31.530     -11.613    -188.790
  P      -30.840     -10.182    -191.142
  C      -32.012     -11.796    -192.777
  O      -31.893     -10.452    -192.327
  C      -33.273     -11.964    -193.626
  O      -34.426     -11.622    -192.811
  C      -33.302     -11.064    -194.867
  O      -33.939     -11.766    -195.937
  C      -34.183      -9.905    -194.434
  O      -34.769      -9.227    -195.540
  C      -35.176     -10.616    -193.516
  N      -38.310      -6.615    -193.188
  C      -38.002      -7.442    -194.211
  N      -37.170      -8.505    -194.203
  C      -36.675      -8.713    -192.967
  C      -36.897      -7.956    -191.831
  C      -37.755      -6.849    -191.975
  N      -38.046      -5.981    -190.950
  N      -36.172      -8.460    -190.768
  C      -35.533      -9.510    -191.252
  N      -35.792      -9.686    -192.585
  O      -29.809     -11.245    -190.955
  O      -30.271      -8.731    -191.510
  H      -35.439      -8.597    -195.199
  H      -30.977      -8.057    -191.502
  H      -38.481      -7.218    -195.162
  H      -34.867     -10.156    -190.691
  H      -35.985     -11.108    -194.070
  H      -33.587      -9.177    -193.871
  H      -32.312     -10.733    -195.179
  H      -33.378     -13.022    -193.898
  H      -32.053     -12.477    -191.920
  H      -38.674      -5.213    -191.141
  H      -37.648      -6.137    -190.036
  H      -31.121     -12.033    -193.367
  P      -33.572     -11.383    -197.449
  C      -31.326     -12.648    -197.466
  O      -32.614     -12.525    -198.052
  O      -33.099      -9.984    -197.667
  O      -34.951     -11.648    -198.228
  H      -35.097     -10.927    -198.869
  H      -30.788     -13.436    -197.950
  H      -31.428     -12.872    -196.425
  H      -30.792     -11.728    -197.582

 6  7  8  9  10  11  12  13  14  15  25  28  32  33  34  35 0
 6-311+G(2d,p)
 ****
 36  39  40 0
 6-311+G(2d,p)
 ****
 1  2  3  4  5  16  17  18  19  20  21  22  23  24 0
 3-21G
 ****
 26  27  29  30  31  37  38  41  42  43  44  45  46  47 0
 3-21G
 ****
 48 0
 3-21G
 ****


