%nproc=1
%NoSave
%Mem=1900MB
#P OB98/GEN NMR

erre ene a

0 1
  C      238.266    -168.068    -531.231
  O      237.904    -168.960    -530.199
  H      237.963    -167.050    -530.975
  H      239.354    -168.091    -531.350
  H      237.801    -168.369    -532.174
  P      236.339    -169.086    -529.866
  C      236.761    -168.553    -527.358
  O      236.098    -168.184    -528.561
  C      237.320    -167.307    -526.680
  O      238.210    -166.608    -527.577
  C      236.261    -166.284    -526.273
  O      235.632    -166.627    -525.051
  C      237.117    -165.039    -526.127
  O      237.841    -165.092    -524.882
  C      238.083    -165.184    -527.310
  N      238.612    -161.026    -530.246
  C      239.202    -161.395    -529.088
  N      239.003    -162.516    -528.369
  C      238.082    -163.301    -528.954
  C      237.396    -163.055    -530.129
  C      237.696    -161.854    -530.795
  N      237.085    -161.471    -531.969
  N      236.509    -164.079    -530.399
  C      236.688    -164.942    -529.417
  N      237.624    -164.510    -528.512
  O      236.191    -170.582    -529.309
  O      235.410    -168.806    -531.002
  H      238.122    -166.016    -524.762
  H      235.264    -170.875    -529.381
  H      239.929    -160.691    -528.689
  H      236.167    -165.884    -529.317
  H      239.085    -164.799    -527.085
  H      236.533    -164.118    -526.118
  H      235.525    -166.125    -527.073
  H      237.908    -167.629    -525.808
  H      237.582    -169.234    -527.595
  H      237.236    -160.517    -532.262
  H      236.297    -162.008    -532.300
  H      236.052    -169.062    -526.697
  P      234.085    -167.057    -525.108
  C      233.558    -164.821    -523.885
  O      233.249    -165.699    -524.965
  O      233.857    -167.786    -523.706
  O      233.726    -167.923    -526.270
  H      233.131    -168.435    -523.765
  H      232.917    -163.965    -523.927
  H      234.578    -164.507    -523.961
  H      233.410    -165.332    -522.957

 6  7  8  9  10  11  12  13  14  15  25  28  32  33  34  35 0
 6-311+G(2d,p)
 ****
 36  39  40 0
 6-311+G(2d,p)
 ****
 1  2  3  4  5  16  17  18  19  20  21  22  23  24 0
 3-21G
 ****
 26  27  29  30  31  37  38  41  42  43  44  45  46  47 0
 3-21G
 ****
 48 0
 3-21G
 ****


