%nproc=1
%NoSave
%Mem=1900MB
#P OB98/GEN NMR

erre ene a

0 1
  C     -185.568    -605.108     223.868
  O     -184.767    -604.127     223.234
  H     -186.328    -605.451     223.161
  H     -186.064    -604.675     224.741
  H     -184.956    -605.962     224.173
  P     -183.450    -603.665     224.020
  C     -181.624    -602.316     222.706
  O     -182.914    -602.326     223.308
  C     -181.375    -600.972     222.023
  O     -182.159    -600.857     220.821
  C     -181.799    -599.766     222.844
  O     -180.933    -599.516     223.929
  C     -181.771    -598.674     221.781
  O     -180.455    -598.140     221.603
  C     -182.228    -599.444     220.514
  N     -183.551    -599.034     220.080
  C     -183.691    -598.817     218.703
  O     -182.729    -599.003     217.953
  N     -184.892    -598.372     218.226
  C     -185.862    -598.131     219.053
  N     -187.020    -597.652     218.513
  C     -185.756    -598.338     220.510
  C     -184.583    -598.786     220.952
  O     -182.379    -604.770     223.578
  O     -183.617    -603.533     225.495
  H     -180.157    -597.847     222.487
  H     -182.345    -604.920     222.619
  H     -186.601    -598.132     221.155
  H     -184.420    -598.971     222.009
  H     -181.527    -599.268     219.689
  H     -182.424    -597.840     222.044
  H     -182.839    -599.886     223.185
  H     -180.312    -600.920     221.753
  H     -187.029    -597.476     217.519
  H     -181.528    -603.135     221.982
  H     -187.812    -597.357     219.067
  H     -180.886    -602.485     223.497
  P     -181.342    -598.513     225.109
  C     -179.966    -600.055     226.649
  O     -180.259    -598.708     226.280
  O     -182.760    -598.608     225.560
  O     -180.938    -597.079     224.521
  H     -180.000    -596.977     224.297
  H     -179.237    -600.060     227.432
  H     -179.582    -600.582     225.801
  H     -180.860    -600.534     226.991

 6  7  8  9  10  11  12  13  14  15  16  26  30  31  32  33  35 0
 6-311+G(2d,p)
 ****
 37  38 0
 6-311+G(2d,p)
 ****
 1  2  3  4  5  17  18  19  20  21  22  23  24  25 0
 3-21G
 ****
 27  28  29  34  36  39  40  41  42  43  44  45  46 0
 3-21G
 ****


