%nproc=1
%NoSave
%Mem=1900MB
#P OB98/GEN NMR

erre ene a

0 1
  C      553.342     -18.844    -695.112
  O      552.129     -18.085    -695.067
  P      550.841     -18.751    -695.747
  C      549.435     -18.092    -693.659
  O      549.788     -19.111    -694.587
  C      547.944     -18.180    -693.333
  O      547.127     -17.821    -694.473
  C      547.489     -19.582    -692.945
  O      547.901     -19.902    -691.627
  C      545.982     -19.456    -693.123
  O      545.393     -18.789    -691.988
  C      545.880     -18.549    -694.357
  N      543.140     -18.708    -698.683
  C      543.146     -17.843    -697.647
  N      543.900     -17.875    -696.534
  C      544.737     -18.925    -696.550
  C      544.851     -19.886    -697.540
  C      543.996     -19.760    -698.652
  N      543.988     -20.648    -699.698
  N      545.815     -20.814    -697.200
  C      546.260     -20.436    -696.023
  N      545.646     -19.288    -695.591
  O      551.371     -20.180    -696.232
  O      550.285     -17.955    -696.877
  H      544.431     -18.720    -692.160
  H      551.449     -20.193    -697.205
  H      542.440     -17.018    -697.727
  H      547.011     -20.948    -695.446
  H      545.068     -17.809    -694.271
  H      545.476     -20.425    -693.232
  H      547.888     -20.317    -693.649
  H      547.726     -17.477    -692.520
  H      549.668     -17.107    -694.071
  H      543.292     -20.524    -700.419
  H      544.567     -21.477    -699.644
  H      550.043     -18.204    -692.758
  P      548.339     -21.419    -691.332
  C      550.850     -20.901    -691.478
  O      549.756     -21.557    -692.078
  O      547.349     -22.233    -692.285
  O      548.327     -21.808    -689.895
  H      547.308     -21.842    -693.177
  H      551.752     -21.104    -692.070
  H      551.000     -21.273    -690.461
  H      550.677     -19.820    -691.456
  H      554.124     -18.296    -694.628
  H      553.612     -19.025    -696.131
  H      553.197     -19.778    -694.610

 3  4  5  6  7  8  9  10  11  12  22  25  29  30  31  32 0
 6-311+G(2d,p)
 ****
 33  36  37 0
 6-311+G(2d,p)
 ****
 1  2  13  14  15  16  17  18  19  20  21  23  24  26 0
 3-21G
 ****
 27  28  34  35  38  39  40  41  42  43  44  45  46  47  48 0
 3-21G
 ****


