%nproc=1
%NoSave
%Mem=1900MB
#P OB98/GEN NMR

erre ene a

0 1
  C     -415.632    -278.693    -504.470
  O     -415.806    -279.660    -503.451
  H     -416.165    -277.774    -504.211
  H     -414.565    -278.464    -504.559
  H     -415.990    -279.084    -505.426
  P     -417.308    -280.147    -503.163
  C     -417.181    -281.516    -505.370
  O     -417.488    -281.515    -503.983
  C     -416.752    -282.911    -505.803
  O     -415.409    -283.180    -505.349
  C     -417.611    -284.036    -505.236
  O     -418.807    -284.218    -505.971
  C     -416.673    -285.217    -505.413
  O     -416.669    -285.637    -506.789
  C     -415.319    -284.602    -505.040
  N     -414.103    -287.969    -501.378
  C     -414.418    -288.124    -502.678
  N     -414.733    -287.179    -503.592
  C     -414.702    -285.958    -503.031
  C     -414.410    -285.640    -501.715
  C     -414.090    -286.713    -500.868
  N     -413.786    -286.560    -499.533
  N     -414.522    -284.282    -501.504
  C     -414.842    -283.783    -502.680
  N     -414.975    -284.758    -503.635
  O     -418.205    -279.107    -503.992
  O     -417.699    -280.224    -501.725
  H     -416.016    -286.362    -506.857
  H     -419.116    -279.100    -503.638
  H     -414.415    -289.150    -503.045
  H     -414.987    -282.731    -502.895
  H     -414.491    -285.016    -505.626
  H     -416.958    -286.085    -504.809
  H     -417.812    -283.891    -504.166
  H     -416.743    -282.941    -506.901
  H     -416.363    -280.809    -505.553
  H     -413.755    -287.397    -498.977
  H     -413.924    -285.651    -499.110
  H     -418.064    -281.196    -505.936
  P     -420.069    -284.831    -505.192
  C     -421.109    -282.655    -504.219
  O     -421.190    -283.690    -505.197
  O     -419.579    -284.861    -503.668
  O     -420.507    -286.175    -505.670
  H     -420.038    -285.556    -503.164
  H     -421.923    -281.974    -504.352
  H     -420.183    -282.130    -504.331
  H     -421.159    -283.084    -503.240

 6  7  8  9  10  11  12  13  14  15  25  28  32  33  34  35 0
 6-311+G(2d,p)
 ****
 36  39  40 0
 6-311+G(2d,p)
 ****
 1  2  3  4  5  16  17  18  19  20  21  22  23  24 0
 3-21G
 ****
 26  27  29  30  31  37  38  41  42  43  44  45  46  47 0
 3-21G
 ****
 48 0
 3-21G
 ****


