%nproc=1
%NoSave
%Mem=1900MB
#P OB98/GEN NMR

erre ene a

0 1
  C     -348.001      90.683      77.608
  O     -349.087      91.270      76.919
  H     -347.804      89.698      77.175
  H     -348.259      90.557      78.664
  H     -347.098      91.293      77.519
  P     -349.358      92.837      77.099
  C     -348.740      93.446      74.669
  O     -349.758      93.419      75.658
  C     -349.338      93.321      73.258
  O     -350.471      92.418      73.294
  C     -349.862      94.677      72.777
  O     -349.815      94.799      71.355
  C     -351.314      94.656      73.228
  O     -352.139      95.559      72.497
  C     -351.661      93.183      73.026
  N     -356.284      91.049      73.241
  C     -355.574      91.473      72.140
  N     -356.181      91.334      70.940
  N     -354.377      92.006      72.212
  C     -353.928      92.150      73.480
  C     -354.552      91.792      74.654
  C     -355.855      91.171      74.559
  O     -356.543      90.787      75.506
  N     -353.789      92.116      75.749
  C     -352.710      92.677      75.243
  N     -352.741      92.709      73.870
  O     -347.894      93.453      77.329
  O     -350.290      93.208      78.215
  H     -351.719      96.438      72.537
  H     -347.950      94.290      77.822
  H     -357.193      90.631      73.133
  H     -351.883      93.072      75.822
  H     -351.959      92.995      71.981
  H     -351.353      94.963      74.281
  H     -357.155      91.099      70.851
  H     -349.315      95.508      73.221
  H     -355.808      91.899      70.172
  H     -348.602      92.883      72.574
  H     -348.071      92.605      74.869
  H     -348.150      94.363      74.753
  P     -348.967      96.011      70.744
  C     -346.572      94.989      70.382
  O     -347.814      95.383      69.821
  O     -348.184      96.597      72.005
  O     -349.799      97.047      70.061
  H     -348.584      97.441      72.292
  H     -345.941      94.597      69.612
  H     -346.739      94.236      71.124
  H     -346.100      95.836      70.833

 6  7  8  9  10  11  12  13  14  15  26  29  33  34 0
 6-311+G(2d,p)
 ****
 36  38  39  40  41 0
 6-311+G(2d,p)
 ****
 1  2  3  4  5  16  17  18  19  20  21  22  23  24  25 0
 3-21G
 ****
 27  28  30  31  32  35  37  42  43  44  45  46  47 0
 3-21G
 ****
 48  49 0
 3-21G
 ****


