%nproc=1
%NoSave
%Mem=1900MB
#P OB98/GEN NMR

erre ene a

0 1
  C      183.950      46.447    -283.355
  O      182.958      45.550    -283.862
  P      182.751      44.048    -283.364
  C      180.645      42.759    -282.478
  O      181.181      43.736    -283.359
  C      179.106      42.663    -282.540
  O      178.528      43.929    -282.123
  C      178.643      42.421    -283.979
  O      178.628      41.110    -284.509
  C      177.304      43.149    -284.077
  O      176.196      42.289    -283.823
  C      177.411      44.224    -282.991
  N      175.334      48.877    -283.514
  C      174.809      47.748    -282.915
  N      173.549      47.852    -282.432
  N      175.453      46.614    -282.811
  C      176.664      46.624    -283.408
  C      177.286      47.672    -284.054
  C      176.587      48.939    -284.111
  O      177.012      49.972    -284.622
  N      178.509      47.298    -284.556
  C      178.617      46.025    -284.241
  N      177.524      45.567    -283.537
  O      183.524      43.660    -282.148
  O      183.308      43.169    -284.600
  H      176.279      41.508    -284.403
  H      183.696      42.357    -284.212
  H      174.804      49.729    -283.542
  H      179.460      45.391    -284.489
  H      176.515      44.225    -282.351
  H      177.163      43.552    -285.084
  H      172.957      48.652    -282.585
  H      179.324      42.980    -284.633
  H      173.083      46.973    -282.188
  H      178.731      41.917    -281.833
  H      180.969      43.028    -281.468
  H      181.083      41.779    -282.691
  P      179.405      40.609    -285.817
  C      180.518      38.458    -286.660
  O      179.788      39.067    -285.609
  O      180.827      41.339    -285.730
  O      178.726      40.919    -287.116
  H      181.278      41.314    -286.598
  H      180.455      37.368    -286.551
  H      181.571      38.756    -286.596
  H      180.113      38.741    -287.636
  H      183.872      47.387    -283.859
  H      184.923      46.033    -283.521
  H      183.798      46.591    -282.306

 3  4  5  6  7  8  9  10  11  12  23  26  30  31 0
 6-311+G(2d,p)
 ****
 33  35  36  37  38 0
 6-311+G(2d,p)
 ****
 1  2  13  14  15  16  17  18  19  20  21  22  24  25 0
 3-21G
 ****
 27  28  29  32  34  39  40  41  42  43  44  45  46  47  48  49 0
 3-21G
 ****


