%nproc=1
%NoSave
%Mem=1900MB
#P OB98/GEN NMR

erre ene a

0 1
  C     -119.888      93.528    -238.484
  O     -120.867      92.684    -239.052
  H     -118.901      93.253    -238.863
  H     -120.100      94.561    -238.775
  H     -119.901      93.460    -237.392
  P     -120.933      91.173    -238.519
  C     -123.028      91.526    -237.028
  O     -121.639      91.233    -237.077
  C     -123.500      91.642    -235.580
  O     -122.917      92.843    -234.998
  C     -125.025      91.733    -235.416
  O     -125.402      90.984    -234.257
  C     -125.259      93.208    -235.149
  O     -126.457      93.453    -234.423
  C     -123.992      93.577    -234.385
  N     -125.230      98.018    -232.242
  C     -125.388      96.743    -231.830
  N     -124.978      95.613    -232.441
  C     -124.285      95.900    -233.556
  C     -124.036      97.149    -234.098
  C     -124.559      98.248    -233.396
  N     -124.464      99.546    -233.842
  N     -123.339      97.028    -235.285
  C     -123.196      95.730    -235.467
  N     -123.753      95.008    -234.449
  O     -119.400      90.865    -238.173
  O     -121.502      90.178    -239.472
  H     -126.611      94.417    -234.382
  H     -118.946      90.529    -238.968
  H     -125.924      96.611    -230.893
  H     -122.728      95.263    -236.323
  H     -124.041      93.298    -233.325
  H     -125.316      93.748    -236.102
  H     -125.585      91.371    -236.287
  H     -123.101      90.789    -235.016
  H     -123.581      90.718    -237.517
  H     -124.963     100.256    -233.328
  H     -124.065      99.722    -234.752
  H     -123.220      92.459    -237.566
  P     -125.818      89.451    -234.471
  C     -124.034      88.646    -232.753
  O     -124.578      88.524    -234.063
  O     -125.880      89.307    -236.064
  O     -127.119      89.083    -233.834
  H     -126.568      88.665    -236.319
  H     -123.218      87.963    -232.641
  H     -124.790      88.420    -232.030
  H     -123.685      89.646    -232.603

 6  7  8  9  10  11  12  13  14  15  25  28  32  33  34  35 0
 6-311+G(2d,p)
 ****
 36  39  40 0
 6-311+G(2d,p)
 ****
 1  2  3  4  5  16  17  18  19  20  21  22  23  24 0
 3-21G
 ****
 26  27  29  30  31  37  38  41  42  43  44  45  46  47 0
 3-21G
 ****
 48 0
 3-21G
 ****


