%nproc=1
%NoSave
%Mem=1900MB
#P OB98/GEN NMR

erre ene a

0 1
  C     -674.583     215.264     262.514
  O     -674.330     215.146     261.129
  H     -674.234     214.357     263.016
  H     -675.658     215.371     262.688
  H     -674.053     216.125     262.933
  P     -674.545     216.453     260.227
  C     -672.323     215.958     258.965
  O     -673.718     216.213     258.870
  C     -671.742     215.707     257.576
  O     -672.026     214.330     257.194
  C     -672.327     216.609     256.481
  O     -671.293     216.925     255.547
  C     -673.351     215.714     255.805
  O     -673.666     216.097     254.475
  C     -672.649     214.358     255.897
  N     -673.572     213.233     255.730
  C     -674.016     212.957     254.442
  O     -673.623     213.530     253.427
  N     -674.957     211.963     254.343
  C     -675.497     211.258     255.381
  O     -676.349     210.392     255.229
  C     -674.990     211.602     256.715
  C     -674.070     212.560     256.827
  O     -673.685     217.564     260.994
  O     -675.964     216.869     260.025
  H     -674.234     218.020     261.658
  H     -674.223     215.379     254.093
  H     -675.288     211.750     253.419
  H     -675.407     211.069     257.564
  H     -673.692     212.854     257.805
  H     -671.850     214.287     255.148
  H     -674.284     215.711     256.382
  H     -672.780     217.537     256.857
  H     -670.651     215.811     257.622
  H     -672.161     215.069     259.583
  H     -671.832     216.813     259.440
  P     -670.693     218.411     255.585
  C     -668.519     217.323     254.602
  O     -669.450     218.401     254.574
  O     -670.028     218.445     257.032
  O     -671.724     219.462     255.327
  H     -669.650     217.588     257.301
  H     -667.763     217.486     253.863
  H     -669.029     216.406     254.394
  H     -668.066     217.268     255.570

 6  7  8  9  10  11  12  13  14  15  16  27  31  32  33  34  35 0
 6-311+G(2d,p)
 ****
 36  37 0
 6-311+G(2d,p)
 ****
 1  2  3  4  5  17  18  19  20  21  22  23  24  25 0
 3-21G
 ****
 26  28  29  30  38  39  40  41  42  43  44  45 0
 3-21G
 ****


