%nproc=1
%NoSave
%Mem=1900MB
#P OB98/GEN NMR

erre ene a

0 1
  C      302.430     -24.178      18.967
  O      301.763     -24.372      17.737
  H      303.478     -23.918      18.784
  H      301.950     -23.355      19.503
  H      302.374     -25.080      19.581
  P      302.200     -25.649      16.870
  C      303.550     -24.250      15.144
  O      303.585     -25.242      16.159
  C      304.822     -24.312      14.299
  O      304.592     -23.609      13.047
  C      306.043     -23.672      14.973
  O      307.202     -24.452      14.673
  C      306.145     -22.314      14.300
  O      307.470     -21.787      14.344
  C      305.647     -22.633      12.893
  N      306.936     -18.043      11.061
  C      307.672     -19.046      11.591
  N      307.246     -20.241      12.051
  C      305.920     -20.374      11.873
  C      305.035     -19.442      11.356
  C      305.596     -18.219      10.943
  N      304.851     -17.180      10.436
  N      303.744     -19.932      11.375
  C      303.847     -21.139      11.899
  N      305.140     -21.448      12.222
  O      301.138     -25.624      15.662
  O      302.197     -26.952      17.586
  H      308.033     -22.329      13.751
  H      300.292     -26.006      15.969
  H      308.738     -18.860      11.660
  H      303.023     -21.820      12.069
  H      306.426     -23.061      12.258
  H      305.476     -21.598      14.800
  H      305.930     -23.586      16.056
  H      305.021     -25.360      14.037
  H      303.470     -23.261      15.610
  H      305.321     -16.314      10.222
  H      303.841     -17.269      10.394
  H      302.675     -24.416      14.505
  P      307.858     -25.263      15.896
  C      310.064     -23.915      16.014
  O      308.866     -24.293      16.672
  O      308.822     -26.316      15.166
  O      306.849     -25.959      16.756
  H      308.661     -27.212      15.513
  H      310.633     -23.270      16.651
  H      309.825     -23.400      15.107
  H      310.638     -24.789      15.788

 6  7  8  9  10  11  12  13  14  15  25  28  32  33  34  35 0
 6-311+G(2d,p)
 ****
 36  39  40 0
 6-311+G(2d,p)
 ****
 1  2  3  4  5  16  17  18  19  20  21  22  23  24 0
 3-21G
 ****
 26  27  29  30  31  37  38  41  42  43  44  45  46  47 0
 3-21G
 ****
 48 0
 3-21G
 ****


