%nproc=1
%NoSave
%Mem=1900MB
#P OB98/GEN NMR

erre ene a

0 1
  C      -53.702    -469.311    -263.997
  O      -54.602    -468.854    -262.991
  P      -54.923    -467.320    -262.690
  C      -53.622    -465.302    -261.626
  O      -53.665    -466.695    -261.916
  C      -52.218    -464.814    -261.212
  O      -51.783    -465.547    -260.035
  C      -51.202    -465.116    -262.310
  O      -51.054    -464.234    -263.410
  C      -49.902    -465.398    -261.566
  O      -49.077    -464.241    -261.443
  C      -50.382    -465.862    -260.188
  N      -47.330    -469.909    -260.882
  C      -47.205    -468.628    -261.376
  N      -46.159    -468.398    -262.202
  N      -48.039    -467.661    -261.098
  C      -49.082    -468.045    -260.334
  C      -49.331    -469.289    -259.798
  C      -48.369    -470.342    -260.062
  O      -48.424    -471.492    -259.638
  N      -50.503    -469.309    -259.091
  C      -50.980    -468.088    -259.216
  N      -50.150    -467.278    -259.959
  O      -56.271    -467.040    -262.116
  O      -54.855    -466.629    -264.146
  H      -48.894    -463.909    -262.343
  H      -55.506    -465.898    -264.138
  H      -46.646    -470.610    -261.106
  H      -51.913    -467.736    -258.785
  H      -49.853    -465.327    -259.385
  H      -49.307    -466.152    -262.103
  H      -45.554    -469.128    -262.553
  H      -51.493    -466.076    -262.762
  H      -46.189    -467.531    -262.739
  H      -52.244    -463.762    -260.924
  H      -54.342    -465.123    -260.824
  H      -53.970    -464.730    -262.493
  P      -51.778    -464.363    -264.833
  C      -51.210    -465.292    -267.153
  O      -50.844    -465.242    -265.782
  O      -51.639    -462.897    -265.471
  O      -53.209    -464.789    -264.781
  H      -52.260    -462.791    -266.210
  H      -50.712    -466.140    -267.624
  H      -50.890    -464.369    -267.650
  H      -52.290    -465.408    -267.262
  H      -53.670    -470.380    -263.988
  H      -52.724    -468.924    -263.803
  H      -54.036    -468.972    -264.955

 3  4  5  6  7  8  9  10  11  12  23  26  30  31 0
 6-311+G(2d,p)
 ****
 33  35  36  37  38 0
 6-311+G(2d,p)
 ****
 1  2  13  14  15  16  17  18  19  20  21  22  24  25 0
 3-21G
 ****
 27  28  29  32  34  39  40  41  42  43  44  45  46  47  48  49 0
 3-21G
 ****


