%nproc=1
%NoSave
%Mem=1900MB
#P OB98/GEN NMR

erre ene a

0 1
  C     -507.194     484.567     470.000
  O     -507.831     484.546     468.738
  H     -506.464     485.381     470.017
  H     -506.659     483.629     470.180
  H     -507.927     484.730     470.794
  P     -508.831     483.333     468.410
  C     -511.045     483.125     467.088
  O     -510.084     484.001     467.672
  C     -512.255     483.917     466.608
  O     -512.970     484.468     467.731
  C     -511.891     485.103     465.728
  O     -511.539     484.676     464.421
  C     -513.152     485.938     465.828
  O     -514.172     485.435     464.958
  C     -513.541     485.724     467.307
  N     -513.099     486.814     468.171
  C     -514.109     487.608     468.726
  O     -515.291     487.367     468.492
  N     -513.742     488.670     469.520
  C     -512.493     488.903     469.752
  N     -512.204     489.972     470.555
  C     -511.397     488.088     469.201
  C     -511.765     487.074     468.421
  O     -509.190     482.432     469.545
  O     -508.090     482.546     467.228
  H     -513.836     485.560     464.050
  H     -507.499     481.862     467.586
  H     -510.368     488.323     469.424
  H     -511.027     486.422     467.975
  H     -514.630     485.631     467.420
  H     -512.964     486.975     465.569
  H     -511.073     485.672     466.184
  H     -512.928     483.224     466.074
  H     -512.983     490.509     470.900
  H     -511.341     482.404     467.857
  H     -511.270     490.201     470.867
  H     -510.599     482.572     466.255
  P     -510.824     485.690     463.402
  C     -509.261     485.391     461.374
  O     -510.183     484.756     462.263
  O     -509.898     486.680     464.023
  O     -512.063     486.366     462.648
  H     -512.524     487.029     463.227
  H     -508.902     484.677     460.663
  H     -508.438     485.782     461.934
  H     -509.754     486.189     460.859

 6  7  8  9  10  11  12  13  14  15  16  26  30  31  32  33  35 0
 6-311+G(2d,p)
 ****
 37  38 0
 6-311+G(2d,p)
 ****
 1  2  3  4  5  17  18  19  20  21  22  23  24  25 0
 3-21G
 ****
 27  28  29  34  36  39  40  41  42  43  44  45  46 0
 3-21G
 ****


