%nproc=1
%NoSave
%Mem=1900MB
#P OB98/GEN NMR

erre ene a

0 1
  C      325.144     135.920    -508.181
  O      324.230     136.060    -509.251
  H      324.687     136.263    -507.247
  H      325.410     134.862    -508.074
  H      326.052     136.496    -508.384
  P      323.685     137.538    -509.548
  C      323.355     137.141    -512.103
  O      322.741     137.387    -510.839
  C      322.286     137.139    -513.188
  O      321.414     135.996    -513.030
  C      321.375     138.367    -513.156
  O      321.948     139.491    -513.798
  C      320.172     137.845    -513.927
  O      320.462     137.838    -515.335
  C      320.064     136.405    -513.397
  N      315.329     135.282    -511.802
  C      315.898     135.265    -513.028
  N      317.170     135.557    -513.367
  C      317.887     135.881    -512.279
  C      317.444     135.945    -510.967
  C      316.095     135.628    -510.738
  N      315.501     135.678    -509.496
  N      318.468     136.348    -510.129
  C      319.509     136.512    -510.920
  N      319.198     136.276    -512.235
  O      324.966     138.307    -510.130
  O      323.048     138.244    -508.400
  H      319.717     137.391    -515.780
  H      324.809     139.273    -510.134
  H      315.242     134.977    -513.849
  H      320.498     136.809    -510.598
  H      319.701     135.702    -514.154
  H      319.278     138.457    -513.784
  H      321.060     138.608    -512.136
  H      322.781     137.048    -514.162
  H      323.851     136.164    -512.074
  H      314.500     135.583    -509.454
  H      316.027     136.073    -508.730
  H      324.099     137.920    -512.303
  P      322.337     140.754    -512.885
  C      323.881     141.975    -514.578
  O      322.637     141.968    -513.888
  O      323.784     140.361    -512.329
  O      321.364     141.044    -511.783
  H      323.925     140.727    -511.430
  H      323.936     142.840    -515.205
  H      323.961     141.093    -515.179
  H      324.682     141.997    -513.869

 6  7  8  9  10  11  12  13  14  15  25  28  32  33  34  35 0
 6-311+G(2d,p)
 ****
 36  39  40 0
 6-311+G(2d,p)
 ****
 1  2  3  4  5  16  17  18  19  20  21  22  23  24 0
 3-21G
 ****
 26  27  29  30  31  37  38  41  42  43  44  45  46  47 0
 3-21G
 ****
 48 0
 3-21G
 ****


