%nproc=1
%NoSave
%Mem=1900MB
#P OB98/GEN NMR

erre ene a

0 1
  C      695.777    -302.940     673.948
  O      696.428    -301.936     673.177
  P      697.794    -302.317     672.427
  C      696.825    -302.145     670.049
  O      697.426    -302.996     671.022
  C      697.886    -301.613     669.061
  O      698.620    -302.735     668.497
  C      697.332    -300.838     667.864
  O      697.138    -299.429     667.997
  C      698.443    -301.031     666.831
  O      699.494    -300.056     667.063
  C      698.979    -302.421     667.140
  N      700.145    -306.596     664.374
  C      700.888    -305.802     665.189
  N      700.502    -304.720     665.890
  C      699.194    -304.458     665.692
  C      698.316    -305.171     664.895
  C      698.835    -306.282     664.201
  N      698.083    -307.080     663.372
  N      697.044    -304.616     664.945
  C      697.177    -303.565     665.738
  N      698.455    -303.438     666.228
  O      698.811    -303.041     673.250
  O      698.343    -300.872     671.978
  H      699.083    -299.168     666.934
  H      699.326    -300.879     672.063
  H      701.938    -306.089     665.293
  H      696.389    -302.873     665.967
  H      700.069    -302.474     667.073
  H      698.098    -300.870     665.800
  H      696.405    -301.301     667.498
  H      698.600    -300.988     669.609
  H      696.327    -301.305     670.539
  H      698.538    -307.834     662.885
  H      697.111    -306.829     663.192
  H      696.036    -302.730     669.531
  P      695.685    -298.811     668.359
  C      696.058    -298.839     670.942
  O      695.338    -299.334     669.833
  O      694.629    -299.078     667.347
  O      696.023    -297.267     668.586
  H      696.545    -297.084     669.381
  H      695.537    -299.155     671.870
  H      696.097    -297.757     670.926
  H      697.069    -299.251     670.976
  H      694.887    -302.535     674.382
  H      696.433    -303.274     674.725
  H      695.522    -303.765     673.317

 3  4  5  6  7  8  9  10  11  12  22  25  29  30  31  32 0
 6-311+G(2d,p)
 ****
 33  36  37 0
 6-311+G(2d,p)
 ****
 1  2  13  14  15  16  17  18  19  20  21  23  24  26 0
 3-21G
 ****
 27  28  34  35  38  39  40  41  42  43  44  45  46  47  48 0
 3-21G
 ****


