%nproc=1
%NoSave
%Mem=1900MB
#P OB98/GEN NMR

erre ene a

0 1
  C     -384.582     180.488    -642.905
  O     -385.620     179.810    -642.227
  H     -385.012     181.272    -643.526
  H     -384.048     179.784    -643.554
  H     -383.884     180.938    -642.195
  P     -385.211     178.895    -640.981
  C     -386.707     176.823    -641.471
  O     -386.490     177.971    -640.649
  C     -388.191     176.717    -641.822
  O     -388.967     176.652    -640.594
  C     -388.734     177.880    -642.660
  O     -389.695     177.374    -643.592
  C     -389.469     178.717    -641.628
  O     -390.476     179.545    -642.216
  C     -390.024     177.616    -640.720
  N     -394.060     178.418    -637.840
  C     -393.914     177.691    -639.002
  N     -395.037     177.141    -639.520
  N     -392.774     177.529    -639.618
  C     -391.735     178.119    -638.977
  C     -391.739     178.862    -637.819
  C     -393.012     179.058    -637.166
  O     -393.195     179.698    -636.137
  N     -390.476     179.334    -637.538
  C     -389.721     178.898    -638.544
  N     -390.428     178.153    -639.432
  O     -385.195     179.946    -639.770
  O     -383.912     178.171    -641.108
  H     -390.053     180.096    -642.903
  H     -384.283     180.274    -639.630
  H     -394.968     178.540    -637.415
  H     -388.664     179.106    -638.652
  H     -390.905     177.117    -641.157
  H     -388.767     179.353    -641.089
  H     -395.951     177.217    -639.093
  H     -387.955     178.453    -643.185
  H     -394.944     176.580    -640.361
  H     -388.352     175.762    -642.359
  H     -386.392     175.928    -640.929
  H     -386.097     176.912    -642.381
  P     -389.268     177.320    -645.148
  C     -391.703     177.405    -646.104
  O     -390.489     176.675    -645.984
  O     -388.149     176.168    -645.171
  O     -388.742     178.607    -645.686
  H     -387.480     176.383    -645.833
  H     -392.403     176.841    -646.684
  H     -391.511     178.340    -646.588
  H     -392.109     177.584    -645.130

 6  7  8  9  10  11  12  13  14  15  26  29  33  34 0
 6-311+G(2d,p)
 ****
 36  38  39  40  41 0
 6-311+G(2d,p)
 ****
 1  2  3  4  5  16  17  18  19  20  21  22  23  24  25 0
 3-21G
 ****
 27  28  30  31  32  35  37  42  43  44  45  46  47 0
 3-21G
 ****
 48  49 0
 3-21G
 ****


