%nproc=1
%NoSave
%Mem=1900MB
#P OB98/GEN NMR

erre ene a

0 1
  C      -48.522       3.402     120.541
  O      -49.195       4.015     119.455
  P      -48.440       5.229     118.720
  C      -49.437       7.420     119.734
  O      -48.412       6.440     119.768
  C      -48.821       8.814     119.865
  O      -48.058       8.912     121.084
  C      -47.869       9.185     118.736
  O      -48.592       9.638     117.606
  C      -47.020      10.264     119.397
  O      -47.701      11.534     119.383
  C      -46.883       9.729     120.829
  N      -42.036       9.950     122.244
  C      -42.925      10.968     121.958
  N      -42.465      12.228     122.116
  N      -44.152      10.770     121.557
  C      -44.470       9.460     121.432
  C      -43.674       8.363     121.669
  C      -42.336       8.597     122.162
  O      -41.544       7.731     122.523
  N      -44.339       7.194     121.408
  C      -45.543       7.584     121.044
  N      -45.682       8.948     121.061
  O      -49.493       5.693     117.613
  O      -47.104       4.888     118.139
  H      -47.936      11.761     118.465
  H      -49.270       5.312     116.742
  H      -41.108      10.163     122.565
  H      -46.353       6.922     120.780
  H      -46.885      10.535     121.572
  H      -46.069      10.414     118.880
  H      -41.525      12.457     122.397
  H      -47.237       8.329     118.472
  H      -43.102      12.988     121.906
  H      -49.643       9.538     119.927
  H      -50.125       7.250     120.567
  H      -49.990       7.328     118.794
  P      -48.169       9.053     116.173
  C      -46.143      10.220     115.047
  O      -46.595       9.289     116.011
  O      -48.822      10.093     115.145
  O      -48.639       7.662     115.910
  H      -49.129       9.617     114.350
  H      -45.199      10.650     115.391
  H      -46.865      11.026     114.892
  H      -45.973       9.702     114.101
  H      -49.129       2.615     120.938
  H      -48.338       4.130     121.303
  H      -47.591       2.998     120.202

 3  4  5  6  7  8  9  10  11  12  23  26  30  31 0
 6-311+G(2d,p)
 ****
 33  35  36  37  38 0
 6-311+G(2d,p)
 ****
 1  2  13  14  15  16  17  18  19  20  21  22  24  25 0
 3-21G
 ****
 27  28  29  32  34  39  40  41  42  43  44  45  46  47  48  49 0
 3-21G
 ****


