%nproc=1
%NoSave
%Mem=1900MB
#P OB98/GEN NMR

erre ene a

0 1
  C      173.449     110.143     -10.768
  O      174.237     110.122     -11.941
  H      174.071     109.840      -9.922
  H      172.613     109.444     -10.861
  H      173.072     111.153     -10.587
  P      173.475     110.431     -13.321
  C      173.331     107.890     -13.895
  O      172.633     109.088     -13.593
  C      172.342     106.784     -14.247
  O      171.526     106.446     -13.103
  C      171.354     107.147     -15.352
  O      171.915     107.085     -16.652
  C      170.310     106.065     -15.135
  O      170.807     104.808     -15.632
  C      170.214     106.059     -13.593
  N      169.183     106.966     -13.080
  C      167.853     106.616     -13.341
  O      167.583     105.597     -13.972
  N      166.854     107.454     -12.907
  C      167.151     108.534     -12.254
  N      166.119     109.324     -11.852
  C      168.536     108.933     -11.946
  C      169.490     108.115     -12.383
  O      174.639     110.341     -14.416
  O      172.680     111.692     -13.364
  H      170.230     104.115     -15.262
  H      174.250     110.370     -15.325
  H      168.736     109.850     -11.409
  H      170.533     108.343     -12.194
  H      170.009     105.048     -13.217
  H      169.370     106.260     -15.649
  H      170.892     108.124     -15.173
  H      172.921     105.890     -14.511
  H      165.184     109.054     -12.130
  H      173.918     107.603     -13.015
  H      166.253     110.252     -11.473
  H      174.009     108.052     -14.737
  P      171.612     108.312     -17.644
  C      169.363     107.100     -18.151
  O      170.029     108.330     -17.891
  O      172.200     107.806     -19.040
  O      172.208     109.621     -17.224
  H      172.568     108.550     -19.556
  H      168.318     107.283     -18.292
  H      169.500     106.438     -17.322
  H      169.770     106.654     -19.034

 6  7  8  9  10  11  12  13  14  15  16  26  30  31  32  33  35 0
 6-311+G(2d,p)
 ****
 37  38 0
 6-311+G(2d,p)
 ****
 1  2  3  4  5  17  18  19  20  21  22  23  24  25 0
 3-21G
 ****
 27  28  29  34  36  39  40  41  42  43  44  45  46 0
 3-21G
 ****


