%nproc=1
%NoSave
%Mem=1900MB
#P OB98/GEN NMR

erre ene a

0 1
  C      358.913    -125.371     462.299
  O      357.809    -125.161     463.154
  H      359.635    -126.013     462.808
  H      359.392    -124.417     462.068
  H      358.596    -125.861     461.373
  P      356.518    -124.443     462.529
  C      357.411    -122.254     463.612
  O      356.860    -122.874     462.460
  C      357.480    -120.741     463.409
  O      358.367    -120.466     462.286
  C      356.128    -120.091     463.094
  O      356.092    -118.800     463.711
  C      356.172    -119.919     461.587
  O      355.309    -118.903     461.096
  C      357.657    -119.606     461.375
  N      358.087    -119.828     459.997
  C      358.026    -118.745     459.126
  O      357.716    -117.602     459.449
  N      358.343    -119.023     457.819
  C      358.679    -120.243     457.312
  O      358.932    -120.430     456.128
  C      358.720    -121.350     458.280
  C      358.424    -121.093     459.557
  O      355.447    -124.539     463.712
  O      356.016    -125.024     461.251
  H      354.931    -125.363     463.639
  H      354.388    -119.187     461.282
  H      358.301    -118.250     457.175
  H      358.973    -122.334     457.912
  H      358.424    -121.891     460.295
  H      357.873    -118.571     461.666
  H      355.900    -120.861     461.096
  H      355.262    -120.680     463.415
  H      357.936    -120.286     464.296
  H      358.422    -122.638     463.784
  H      356.791    -122.493     464.484
  P      355.458    -118.703     465.183
  C      353.298    -118.030     463.862
  O      353.868    -118.710     464.966
  O      355.800    -117.191     465.567
  O      355.995    -119.734     466.118
  H      355.761    -116.587     464.807
  H      352.234    -118.145     463.883
  H      353.684    -118.441     462.952
  H      353.545    -116.990     463.917

 6  7  8  9  10  11  12  13  14  15  16  27  31  32  33  34  35 0
 6-311+G(2d,p)
 ****
 36  37 0
 6-311+G(2d,p)
 ****
 1  2  3  4  5  17  18  19  20  21  22  23  24  25 0
 3-21G
 ****
 26  28  29  30  38  39  40  41  42  43  44  45 0
 3-21G
 ****


