%nproc=1
%NoSave
%Mem=1900MB
#P OB98/GEN NMR

erre ene a

0 1
  C     -658.787     445.534     137.408
  O     -660.039     446.220     137.516
  P     -661.357     445.305     137.607
  C     -662.277     445.478     135.177
  O     -661.624     444.674     136.151
  C     -662.482     444.682     133.890
  O     -661.236     444.507     133.163
  C     -663.013     443.278     134.130
  O     -664.394     443.305     134.462
  C     -662.691     442.614     132.791
  O     -663.674     442.977     131.794
  C     -661.334     443.252     132.437
  N     -658.262     439.532     130.739
  C     -659.314     440.167     130.172
  N     -660.082     441.142     130.691
  C     -659.666     441.473     131.928
  C     -658.606     440.917     132.637
  C     -657.889     439.897     131.991
  N     -656.828     439.235     132.577
  N     -658.484     441.507     133.868
  C     -659.465     442.385     133.929
  N     -660.201     442.413     132.773
  O     -662.534     446.376     137.782
  O     -661.327     444.319     138.726
  H     -663.740     443.951     131.793
  H     -662.886     446.335     138.693
  H     -659.580     439.837     129.166
  H     -659.687     443.026     134.776
  H     -661.258     443.498     131.369
  H     -662.676     441.524     132.850
  H     -662.448     442.786     134.935
  H     -663.173     445.247     133.249
  H     -661.675     446.372     134.970
  H     -656.418     438.464     132.073
  H     -656.602     439.436     133.545
  H     -663.231     445.827     135.587
  P     -664.804     443.026     135.982
  C     -665.536     440.565     136.085
  O     -664.453     441.466     136.201
  O     -666.392     443.021     135.893
  O     -664.205     443.965     136.980
  H     -666.717     442.489     135.137
  H     -665.162     439.546     136.221
  H     -666.014     440.650     135.100
  H     -666.283     440.771     136.862
  H     -657.992     446.248     137.355
  H     -658.785     444.932     136.523
  H     -658.648     444.908     138.265

 3  4  5  6  7  8  9  10  11  12  22  25  29  30  31  32 0
 6-311+G(2d,p)
 ****
 33  36  37 0
 6-311+G(2d,p)
 ****
 1  2  13  14  15  16  17  18  19  20  21  23  24  26 0
 3-21G
 ****
 27  28  34  35  38  39  40  41  42  43  44  45  46  47  48 0
 3-21G
 ****


