%nproc=1
%NoSave
%Mem=1900MB
#P OB98/GEN NMR

erre ene a

0 1
  C      569.993    -394.807    -890.730
  O      570.032    -395.008    -892.130
  H      570.103    -393.734    -890.530
  H      570.818    -395.340    -890.250
  H      569.039    -395.150    -890.310
  P      569.796    -396.514    -892.650
  C      569.052    -395.648    -894.970
  O      568.705    -396.426    -893.830
  C      568.421    -396.271    -896.230
  O      569.099    -397.536    -896.540
  C      566.915    -396.586    -896.100
  O      566.300    -396.355    -897.380
  C      566.902    -398.073    -895.830
  O      565.653    -398.690    -896.150
  C      568.066    -398.529    -896.720
  N      567.678    -403.404    -897.880
  C      567.102    -402.288    -898.460
  N      566.301    -402.520    -899.530
  N      567.303    -401.073    -898.050
  C      568.154    -401.000    -897.000
  C      568.788    -402.015    -896.330
  C      568.542    -403.369    -896.790
  O      569.003    -404.386    -896.290
  N      569.553    -401.525    -895.300
  C      569.395    -400.216    -895.350
  N      568.549    -399.841    -896.370
  O      568.990    -397.182    -891.430
  O      571.039    -397.282    -892.980
  H      565.739    -399.645    -895.950
  H      569.608    -397.627    -890.830
  H      567.494    -404.326    -898.230
  H      569.848    -399.496    -894.680
  H      567.795    -398.552    -897.770
  H      567.117    -398.272    -894.770
  H      566.134    -403.426    -899.940
  H      566.395    -396.001    -895.330
  H      565.893    -401.710    -900.000
  H      568.606    -395.601    -897.070
  H      570.134    -395.644    -895.090
  H      568.694    -394.630    -894.840
  P      565.057    -395.340    -897.440
  C      566.443    -393.201    -897.950
  O      565.587    -393.889    -897.040
  O      564.184    -395.766    -896.160
  O      564.266    -395.428    -898.700
  H      563.247    -395.556    -896.320
  H      566.709    -392.249    -897.539
  H      565.934    -393.058    -898.880
  H      567.328    -393.779    -898.113

 6  7  8  9  10  11  12  13  14  15  26  29  33  34 0
 6-311+G(2d,p)
 ****
 36  38  39  40  41 0
 6-311+G(2d,p)
 ****
 1  2  3  4  5  16  17  18  19  20  21  22  23  24  25 0
 3-21G
 ****
 27  28  30  31  32  35  37  42  43  44  45  46  47 0
 3-21G
 ****
 48  49 0
 3-21G
 ****


