%nproc=1
%NoSave
%Mem=1900MB
#P OB98/GEN NMR

erre ene a

0 1
  C       46.367     661.447    -715.167
  O       45.500     660.666    -714.360
  H       45.919     661.544    -716.163
  H       47.331     660.946    -715.270
  H       46.497     662.444    -714.741
  P       45.814     660.535    -712.797
  C       43.267     660.186    -712.537
  O       44.571     659.770    -712.133
  C       42.205     659.314    -711.858
  O       42.269     657.970    -712.368
  C       42.383     659.193    -710.346
  O       41.954     660.376    -709.687
  C       41.539     657.955    -710.065
  O       40.139     658.290    -710.019
  C       41.847     657.083    -711.305
  N       42.859     656.061    -711.046
  C       42.475     654.997    -710.232
  O       41.352     654.918    -709.709
  N       43.421     654.027    -710.025
  C       44.713     654.058    -710.459
  O       45.540     653.191    -710.193
  C       45.080     655.219    -711.294
  C       44.148     656.154    -711.543
  O       46.216     661.798    -712.098
  O       46.982     659.435    -712.736
  H       39.664     657.472    -709.782
  H       47.840     659.876    -712.629
  H       43.163     653.260    -709.420
  H       46.097     655.285    -711.656
  H       44.401     657.021    -712.150
  H       40.934     656.588    -711.661
  H       41.787     657.487    -709.119
  H       43.426     658.964    -710.098
  H       41.220     659.731    -712.106
  H       43.180     660.091    -713.620
  H       43.138     661.241    -712.268
  P       42.911     661.112    -708.639
  C       41.988     663.509    -708.612
  O       42.034     662.270    -707.927
  O       44.219     661.576    -709.180
  O       43.107     660.041    -707.474
  H       44.019     659.660    -707.524
  H       41.386     664.200    -708.060
  H       41.564     663.364    -709.584
  H       42.979     663.899    -708.710

 6  7  8  9  10  11  12  13  14  15  16  26  31  32  33  34  35 0
 6-311+G(2d,p)
 ****
 36  37 0
 6-311+G(2d,p)
 ****
 1  2  3  4  5  17  18  19  20  21  22  23  24  25 0
 3-21G
 ****
 27  28  29  30  38  39  40  41  42  43  44  45 0
 3-21G
 ****


