%nproc=1
%NoSave
%Mem=1900MB
#P OB98/GEN NMR

erre ene a

0 1
  C      -57.584    -252.797      89.996
  O      -56.395    -252.603      90.761
  P      -55.676    -251.171      90.704
  C      -56.606    -250.313      92.953
  O      -56.556    -250.123      91.543
  C      -57.813    -249.575      93.555
  O      -59.030    -250.260      93.155
  C      -57.847    -249.533      95.087
  O      -57.195    -248.451      95.748
  C      -59.342    -249.365      95.348
  O      -59.703    -247.975      95.235
  C      -59.996    -250.157      94.221
  N      -63.252    -252.763      97.185
  C      -63.074    -251.439      96.985
  N      -62.183    -250.827      96.179
  C      -61.433    -251.727      95.526
  C      -61.503    -253.107      95.624
  C      -62.465    -253.629      96.505
  N      -62.640    -254.977      96.717
  N      -60.566    -253.703      94.806
  C      -59.931    -252.698      94.238
  N      -60.425    -251.484      94.629
  O      -55.244    -250.711      89.353
  O      -54.406    -251.387      91.662
  H      -60.666    -247.926      95.384
  H      -53.644    -250.902      91.289
  H      -63.731    -250.783      97.551
  H      -59.110    -252.801      93.542
  H      -60.878    -249.650      93.812
  H      -59.627    -249.682      96.356
  H      -57.501    -250.483      95.510
  H      -57.849    -248.555      93.153
  H      -55.684    -249.939      93.405
  H      -63.321    -255.266      97.400
  H      -62.022    -255.634      96.263
  H      -56.636    -251.387      93.139
  P      -55.722    -248.610      96.354
  C      -54.784    -247.002      94.516
  O      -54.721    -248.259      95.153
  O      -55.451    -249.910      97.027
  O      -55.601    -247.332      97.308
  H      -55.568    -246.482      96.839
  H      -53.898    -246.883      93.888
  H      -54.807    -246.194      95.252
  H      -55.673    -246.954      93.883
  H      -57.941    -253.796      90.138
  H      -57.371    -252.639      88.959
  H      -58.332    -252.102      90.317

 3  4  5  6  7  8  9  10  11  12  22  25  29  30  31  32 0
 6-311+G(2d,p)
 ****
 33  36  37 0
 6-311+G(2d,p)
 ****
 1  2  13  14  15  16  17  18  19  20  21  23  24  26 0
 3-21G
 ****
 27  28  34  35  38  39  40  41  42  43  44  45  46  47  48 0
 3-21G
 ****


