%nproc=1
%NoSave
%Mem=1900MB
#P OB98/GEN NMR

erre ene a

0 1
  C      495.496     -69.712    -860.920
  O      496.898     -69.891    -861.022
  P      497.442     -70.645    -862.331
  C      496.268     -72.914    -861.879
  O      497.501     -72.202    -861.951
  C      496.465     -74.349    -862.371
  O      496.870     -74.347    -863.745
  C      497.549     -75.116    -861.619
  O      497.065     -75.555    -860.365
  C      497.837     -76.249    -862.605
  O      496.938     -77.350    -862.402
  C      497.592     -75.583    -863.970
  N      498.829     -75.345    -864.706
  C      499.178     -76.335    -865.644
  O      498.466     -77.324    -865.797
  N      500.340     -76.180    -866.358
  C      501.085     -75.138    -866.146
  N      502.229     -75.033    -866.884
  C      500.769     -74.089    -865.162
  C      499.637     -74.264    -864.480
  O      498.992     -70.220    -862.372
  O      496.730     -70.303    -863.592
  H      496.039     -76.996    -862.575
  H      499.334     -70.249    -863.284
  H      501.427     -73.248    -865.021
  H      499.319     -73.535    -863.726
  H      496.944     -76.204    -864.598
  H      498.845     -76.642    -862.483
  H      498.439     -74.497    -861.499
  H      495.500     -74.870    -862.290
  H      502.424     -75.770    -867.551
  H      495.525     -72.426    -862.516
  H      502.868     -74.254    -866.819
  H      495.905     -72.899    -860.848
  P      498.128     -75.689    -859.172
  C      498.782     -78.025    -860.041
  O      498.284     -77.274    -858.945
  O      497.270     -75.255    -857.897
  O      499.396     -74.914    -859.299
  H      497.837     -75.202    -857.106
  H      498.987     -79.044    -859.698
  H      499.718     -77.584    -860.410
  H      498.040     -78.056    -860.834
  H      495.267     -69.200    -860.009
  H      495.013     -70.667    -860.924
  H      495.149     -69.134    -861.751

 3  4  5  6  7  8  9  10  11  12  13  21  23  27  28  29  30  32 0
 6-311+G(2d,p)
 ****
 34  35 0
 6-311+G(2d,p)
 ****
 1  2  14  15  16  17  18  19  20  22  24  25  26 0
 3-21G
 ****
 31  33  36  37  38  39  40  41  42  43  44  45  46 0
 3-21G
 ****


