%nproc=1
%NoSave
%Mem=1900MB
#P OB98/GEN NMR

erre ene a

0 1
  C      450.152       6.655     149.246
  O      451.324       6.496     150.023
  H      450.399       6.654     148.183
  H      449.478       5.815     149.450
  H      449.643       7.588     149.513
  P      452.448       7.633     149.880
  C      453.554       6.271     147.957
  O      452.999       7.512     148.373
  C      453.615       6.221     146.434
  O      452.279       6.206     145.886
  C      454.311       7.415     145.792
  O      455.724       7.289     145.814
  C      453.775       7.326     144.371
  O      454.458       6.283     143.658
  C      452.310       6.933     144.619
  N      448.411       9.361     142.354
  C      449.112       8.254     142.006
  N      450.138       7.674     142.661
  C      450.428       8.355     143.788
  C      449.812       9.497     144.263
  C      448.746      10.004     143.493
  N      448.043      11.142     143.834
  N      450.409       9.930     145.436
  C      451.351       9.035     145.674
  N      451.408       8.070     144.700
  O      453.664       7.069     150.754
  O      452.035       9.011     150.285
  H      453.947       6.118     142.842
  H      454.262       7.801     151.006
  H      448.805       7.773     141.080
  H      452.007       9.045     146.529
  H      451.918       6.260     143.843
  H      453.911       8.250     143.804
  H      453.986       8.365     146.241
  H      454.108       5.278     146.143
  H      452.922       5.454     148.321
  H      447.430      11.520     143.126
  H      448.384      11.711     144.601
  H      454.559       6.165     148.382
  P      456.583       8.645     145.816
  C      457.509       8.646     143.379
  O      456.564       9.183     144.301
  O      458.087       8.126     146.000
  O      456.190       9.636     146.865
  H      458.643       8.802     146.424
  H      457.370       9.101     142.420
  H      457.366       7.589     143.296
  H      458.501       8.845     143.728

 6  7  8  9  10  11  12  13  14  15  25  28  32  33  34  35 0
 6-311+G(2d,p)
 ****
 36  39  40 0
 6-311+G(2d,p)
 ****
 1  2  3  4  5  16  17  18  19  20  21  22  23  24 0
 3-21G
 ****
 26  27  29  30  31  37  38  41  42  43  44  45  46  47 0
 3-21G
 ****
 48 0
 3-21G
 ****


