%nproc=1
%NoSave
%Mem=1900MB
#P OB98/GEN NMR

erre ene a

0 1
  C     -378.857     -72.003    -290.205
  O     -379.022     -70.635    -290.601
  P     -379.640     -69.646    -289.491
  C     -381.958     -68.583    -288.978
  O     -381.198     -69.427    -289.835
  C     -383.174     -67.992    -289.697
  O     -382.720     -67.104    -290.749
  C     -384.107     -69.017    -290.348
  O     -385.461     -68.568    -290.206
  C     -383.751     -68.930    -291.817
  O     -384.805     -69.395    -292.660
  C     -383.441     -67.443    -291.943
  N     -383.570     -66.723    -296.957
  C     -384.608     -66.917    -296.063
  N     -385.854     -66.951    -296.586
  N     -384.442     -67.072    -294.774
  C     -383.139     -66.983    -294.390
  C     -382.028     -66.779    -295.170
  C     -382.227     -66.658    -296.602
  O     -381.340     -66.533    -297.447
  N     -380.877     -66.748    -294.414
  C     -381.300     -66.943    -293.175
  N     -382.666     -67.098    -293.111
  O     -378.961     -68.237    -289.840
  O     -379.348     -70.060    -288.088
  H     -384.433     -69.497    -293.555
  H     -378.496     -67.897    -289.059
  H     -383.749     -66.635    -297.941
  H     -380.665     -67.007    -292.302
  H     -384.365     -66.845    -291.960
  H     -382.862     -69.549    -292.014
  H     -386.056     -66.782    -297.560
  H     -384.014     -70.036    -289.947
  H     -386.633     -67.057    -295.946
  H     -383.731     -67.375    -288.976
  H     -381.323     -67.772    -288.609
  H     -382.282     -69.172    -288.112
  P     -386.488     -69.581    -289.499
  C     -388.327     -71.194    -290.378
  O     -387.381     -70.183    -290.680
  O     -387.493     -68.611    -288.718
  O     -385.835     -70.573    -288.592
  H     -387.876     -69.066    -287.948
  H     -388.475     -71.316    -289.305
  H     -387.979     -72.142    -290.801
  H     -389.284     -70.936    -290.846
  H     -378.442     -72.562    -291.017
  H     -379.808     -72.414    -289.939
  H     -378.198     -72.054    -289.363

 3  4  5  6  7  8  9  10  11  12  23  26  30  31  33  0
 6-311+G(2d,p)
 ****
 35  36  37  38 0
 6-311+G(2d,p)
 ****
 1  2  13  14  15  16  17  18  19  20  21  22  24  25  27  28  29 0
 3-21G
 ****
 32  34  39  40  41  42  43  44  45  46  47  48  49 0
 3-21G
 ****


