%nproc=1
%NoSave
%Mem=1900MB
#P OB98/GEN NMR

erre ene a

0 1
  C     -254.228     260.118     454.062
  O     -253.994     258.801     453.599
  P     -253.659     257.615     454.623
  C     -251.537     256.373     455.342
  O     -252.073     257.595     454.862
  C     -250.012     256.446     455.467
  O     -249.432     256.654     454.148
  C     -249.505     257.567     456.385
  O     -248.374     257.056     457.092
  C     -249.085     258.646     455.406
  O     -248.149     259.551     455.973
  C     -248.553     257.794     454.249
  N     -248.492     258.528     452.997
  C     -247.232     258.985     452.591
  O     -246.266     258.873     453.346
  N     -247.112     259.566     451.353
  C     -248.185     259.840     450.671
  N     -248.017     260.354     449.420
  C     -249.549     259.596     451.183
  C     -249.628     258.904     452.323
  O     -254.247     256.290     454.268
  O     -254.229     258.135     456.029
  H     -254.829     257.456     456.404
  H     -248.607     260.123     456.617
  H     -250.404     259.954     450.635
  H     -250.587     258.653     452.762
  H     -247.552     257.409     454.484
  H     -249.958     259.221     455.088
  H     -250.266     257.896     457.102
  H     -249.654     255.474     455.824
  H     -247.066     260.471     449.087
  H     -251.798     255.584     454.634
  H     -248.746     260.300     448.712
  H     -251.990     256.123     456.306
  P     -248.102     257.586     458.586
  C     -245.907     258.018     459.908
  O     -246.573     258.071     458.666
  O     -248.060     256.213     459.417
  O     -249.132     258.499     459.166
  H     -248.292     256.395     460.345
  H     -244.913     258.451     459.791
  H     -245.803     256.984     460.241
  H     -246.453     258.596     460.660
  H     -254.433     260.758     453.229
  H     -253.362     260.473     454.580
  H     -255.066     260.119     454.727

 3  4  5  6  7  8  9  10  11  12  13  24  27  28  29  30  32 0
 6-311+G(2d,p)
 ****
 34  35 0
 6-311+G(2d,p)
 ****
 1  2  14  15  16  17  18  19  20  21  22  23  25  26 0
 3-21G
 ****
 31  33  36  37  38  39  40  41  42  43  44  45  46 0
 3-21G
 ****


