%nproc=1
%NoSave
%Mem=1900MB
#P OB98/GEN NMR

erre ene a

0 1
  C      -77.271      78.265      14.719
  O      -77.364      78.599      13.347
  H      -76.468      77.533      14.846
  H      -78.207      77.821      15.069
  H      -77.034      79.151      15.313
  P      -78.480      79.660      12.900
  C      -81.052      79.733      13.128
  O      -79.890      78.916      13.074
  C      -82.272      78.941      12.671
  O      -82.179      78.644      11.264
  C      -82.446      77.603      13.389
  O      -83.054      77.795      14.656
  C      -83.339      76.874      12.399
  O      -84.691      77.358      12.517
  C      -82.732      77.313      11.054
  N      -81.415      73.990       7.458
  C      -82.622      74.628       7.678
  N      -83.633      74.298       6.845
  N      -82.823      75.492       8.639
  C      -81.743      75.668       9.434
  C      -80.501      75.082       9.327
  C      -80.272      74.170       8.225
  O      -79.214      73.596       7.984
  N      -79.676      75.457      10.357
  C      -80.406      76.297      11.065
  N      -81.675      76.449      10.554
  O      -78.294      80.293      11.553
  O      -78.484      80.741      14.077
  H      -85.210      76.904      11.827
  H      -77.884      81.482      13.878
  H      -81.329      73.321       6.711
  H      -80.067      76.823      11.949
  H      -83.486      77.392      10.262
  H      -83.364      75.795      12.555
  H      -83.614      73.451       6.290
  H      -81.498      77.057      13.469
  H      -84.538      74.716       7.022
  H      -83.157      79.577      12.808
  H      -80.883      80.592      12.468
  H      -81.212      80.100      14.147
  P      -82.913      76.696      15.818
  C      -83.620      74.219      16.053
  O      -83.639      75.387      15.242
  O      -83.395      77.136      17.160
  O      -81.372      76.276      15.791
  H      -80.797      76.844      16.363
  H      -84.136      73.428      15.551
  H      -84.103      74.424      16.986
  H      -82.607      73.926      16.233

 6  7  8  9  10  11  12  13  14  15  26  29  33  34 0
 6-311+G(2d,p)
 ****
 36  38  39  40  41 0
 6-311+G(2d,p)
 ****
 1  2  3  4  5  16  17  18  19  20  21  22  23  24  25 0
 3-21G
 ****
 27  28  30  31  32  35  37  42  43  44  45  46  47 0
 3-21G
 ****
 48  49 0
 3-21G
 ****


