%nproc=1
%NoSave
%Mem=1900MB
#P OB98/GEN NMR

erre ene a

0 1
  C     -326.617     -73.929      71.178
  O     -327.539     -72.840      71.289
  P     -327.985     -72.289      72.731
  C     -325.907     -71.114      73.660
  O     -327.178     -70.932      73.043
  C     -324.985     -69.892      73.534
  O     -324.634     -69.646      72.148
  C     -325.568     -68.585      74.089
  O     -324.451     -67.851      74.609
  C     -326.121     -67.922      72.842
  O     -326.334     -66.525      73.013
  C     -325.056     -68.312      71.806
  N     -325.554     -68.228      70.436
  C     -324.840     -67.420      69.550
  O     -323.870     -66.767      69.942
  N     -325.269     -67.327      68.248
  C     -326.372     -67.913      67.890
  N     -326.762     -67.770      66.594
  C     -327.204     -68.708      68.815
  C     -326.734     -68.831      70.060
  O     -327.945     -73.302      73.827
  O     -329.487     -71.772      72.495
  H     -325.478     -66.114      73.261
  H     -329.997     -71.869      73.324
  H     -328.132     -69.154      68.481
  H     -327.269     -69.399      70.809
  H     -324.176     -67.655      71.894
  H     -327.086     -68.378      72.579
  H     -326.325     -68.740      74.859
  H     -324.051     -70.132      74.055
  H     -326.175     -67.193      65.996
  H     -325.418     -71.979      73.196
  H     -327.654     -68.084      66.244
  H     -326.058     -71.359      74.718
  P     -324.337     -67.461      76.159
  C     -322.311     -68.926      76.713
  O     -322.792     -67.602      76.559
  O     -325.285     -68.189      77.058
  O     -324.587     -65.875      76.206
  H     -324.814     -65.617      77.120
  H     -321.220     -68.907      76.771
  H     -322.608     -69.549      75.861
  H     -322.709     -69.364      77.634
  H     -326.446     -74.148      70.145
  H     -327.024     -74.792      71.663
  H     -325.691     -73.661      71.643

 3  4  5  6  7  8  9  10  11  12  13  23  27  28  29  30  32 0
 6-311+G(2d,p)
 ****
 34  35 0
 6-311+G(2d,p)
 ****
 1  2  14  15  16  17  18  19  20  21  22  24  25  26 0
 3-21G
 ****
 31  33  36  37  38  39  40  41  42  43  44  45  46 0
 3-21G
 ****


