%nproc=1
%NoSave
%Mem=1900MB
#P OB98/GEN NMR

erre ene a

0 1
  C      856.533    -203.207     275.884
  O      856.995    -203.645     274.618
  H      857.366    -202.740     276.416
  H      856.172    -204.059     276.466
  H      855.734    -202.473     275.762
  P      855.911    -204.349     273.667
  C      857.084    -203.779     271.411
  O      856.702    -204.782     272.338
  C      857.415    -204.404     270.050
  O      858.684    -205.128     270.166
  C      856.369    -205.420     269.557
  O      856.386    -205.422     268.128
  C      856.944    -206.730     270.077
  O      856.316    -207.838     269.466
  C      858.422    -206.492     269.770
  N      861.537    -210.521     269.273
  C      860.838    -209.808     268.366
  N      860.038    -208.739     268.574
  C      860.017    -208.410     269.872
  C      860.682    -209.033     270.917
  C      861.475    -210.145     270.579
  N      862.176    -210.874     271.500
  N      860.408    -208.402     272.123
  C      859.592    -207.418     271.811
  N      859.321    -207.386     270.464
  O      854.991    -203.130     273.188
  O      855.112    -205.435     274.302
  H      856.521    -208.660     269.955
  H      854.210    -203.060     273.764
  H      860.932    -210.146     267.334
  H      859.163    -206.702     272.507
  H      858.639    -206.570     268.701
  H      856.784    -206.832     271.152
  H      855.359    -205.205     269.913
  H      857.579    -203.608     269.317
  H      857.960    -203.255     271.801
  H      856.261    -203.061     271.290
  H      862.708    -211.674     271.176
  H      862.128    -210.619     272.481
  P      855.076    -204.953     267.323
  C      856.338    -204.352     265.112
  O      855.341    -205.130     265.752
  O      855.136    -203.361     267.491
  O      853.776    -205.491     267.837
  H      854.229    -202.990     267.458
  H      856.373    -204.603     264.072
  H      857.289    -204.552     265.560
  H      856.104    -203.313     265.221

 6  7  8  9  10  11  12  13  14  15  25  28  32  33  34  35 0
 6-311+G(2d,p)
 ****
 36  37  40 0
 6-311+G(2d,p)
 ****
 1  2  3  4  5  16  17  18  19  20  21  22  23  24 0
 3-21G
 ****
 26  27  29  30  31  38  39 41  42  43  44  45  46  47  48 0
 3-21G
 ****


