%nproc=1
%NoSave
%Mem=1900MB
#P OB98/GEN NMR

erre ene a

0 1
  C      -31.843      39.721     323.524
  O      -32.846      40.391     324.252
  P      -32.615      41.893     324.768
  C      -34.964      42.841     324.298
  O      -33.594      42.824     323.899
  C      -35.850      43.162     323.100
  O      -35.800      42.100     322.110
  C      -37.331      43.284     323.437
  O      -37.720      44.360     324.259
  C      -37.956      43.206     322.056
  O      -37.901      44.465     321.385
  C      -37.035      42.176     321.354
  N      -37.672      40.867     321.223
  C      -38.691      40.782     320.286
  O      -39.061      41.726     319.589
  N      -39.311      39.563     320.189
  C      -39.046      38.463     320.948
  O      -39.671      37.416     320.840
  C      -37.969      38.623     321.937
  C      -37.336      39.799     322.030
  O      -31.194      42.343     324.798
  O      -33.327      41.899     326.205
  H      -36.987      44.799     321.459
  H      -34.279      41.689     326.187
  H      -40.065      39.482     319.521
  H      -37.723      37.765     322.554
  H      -36.539      39.939     322.753
  H      -36.764      42.528     320.348
  H      -39.012      42.910     322.100
  H      -37.631      42.379     323.976
  H      -35.469      44.067     322.618
  H      -35.099      43.612     325.061
  H      -35.225      41.873     324.741
  P      -38.779      44.221     325.456
  C      -37.083      44.798     327.329
  O      -37.977      43.850     326.794
  O      -40.026      43.455     325.161
  O      -39.166      45.759     325.720
  H      -40.088      45.804     326.031
  H      -36.598      44.362     328.210
  H      -37.618      45.699     327.638
  H      -36.311      45.051     326.597
  H      -32.182      38.738     323.271
  H      -30.957      39.650     324.120
  H      -31.628      40.266     322.628

 3  4  5  6  7  8  9  10  11  12  13  23  28  29  30  31  32 0
 6-311+G(2d,p)
 ****
 33  34 0
 6-311+G(2d,p)
 ****
 1  2  14  15  16  17  18  19  20  21  22  24  25  26  27 0
 3-21G
 ****
 35  36  37  38  39  40  41  42  43  44  45 0
 3-21G
 ****


