%nproc=1
%NoSave
%Mem=1900MB
#P OB98/GEN NMR

erre ene a

0 1
  C       25.771       8.260      24.917
  O       27.172       8.337      25.115
  P       28.006       7.097      25.708
  C       27.899       8.261      28.015
  O       27.672       7.074      27.276
  C       27.838       7.973      29.517
  O       26.536       7.410      29.828
  C       28.900       6.985      30.015
  O       29.276       7.395      31.334
  C       28.146       5.670      30.058
  O       28.745       4.724      30.930
  C       26.756       6.150      30.491
  N       25.706       5.193      30.161
  C       25.526       4.105      31.017
  O       26.246       3.949      32.001
  N       24.525       3.209      30.737
  C       23.824       3.338      29.654
  N       22.806       2.458      29.453
  C       24.054       4.410      28.668
  C       24.984       5.303      28.995
  O       29.458       7.106      25.380
  O       27.223       5.808      25.184
  H       28.525       4.970      31.849
  H       27.501       5.532      24.275
  H       23.462       4.459      27.765
  H       25.203       6.137      28.344
  H       26.745       6.354      31.567
  H       28.118       5.232      29.055
  H       29.788       6.961      29.376
  H       27.919       8.925      30.055
  H       22.570       1.849      30.230
  H       27.116       8.981      27.762
  H       22.037       2.683      28.832
  H       28.867       8.692      27.736
  P       30.830       7.334      31.736
  C       30.975       5.083      33.018
  O       31.257       5.793      31.832
  O       30.780       7.762      33.284
  O       31.746       8.245      30.988
  H       31.640       8.148      33.534
  H       31.328       4.054      32.901
  H       29.898       5.061      33.205
  H       31.491       5.536      33.868
  H       25.416       9.187      24.517
  H       25.289       8.067      25.852
  H       25.551       7.468      24.232

 3  4  5  6  7  8  9  10  11  12  13  23  27  28  29  30  32 0
 6-311+G(2d,p)
 ****
 34  35 0
 6-311+G(2d,p)
 ****
 1  2  14  15  16  17  18  19  20  21  22  24  25  26 0
 3-21G
 ****
 31  33  36  37  38  39  40  41  42  43  44  45  46 0
 3-21G
 ****


