%nproc=1
%NoSave
%Mem=1900MB
#P OB98/GEN NMR

erre ene a

0 1
  C     -367.412     -94.075    -361.217
  O     -367.277     -92.802    -361.824
  P     -365.807     -92.155    -361.876
  C     -366.074     -90.553    -363.900
  O     -365.552     -91.788    -363.419
  C     -365.525     -90.248    -365.286
  O     -366.058     -91.186    -366.244
  C     -365.888     -88.868    -365.821
  O     -365.043     -87.855    -365.302
  C     -365.656     -89.060    -367.316
  O     -364.252     -88.915    -367.608
  C     -366.096     -90.520    -367.532
  N     -368.898     -90.485    -371.754
  C     -367.532     -90.337    -371.593
  N     -366.807     -90.184    -372.725
  N     -366.931     -90.337    -370.434
  C     -367.777     -90.541    -369.397
  C     -369.146     -90.696    -369.424
  C     -369.803     -90.646    -370.715
  O     -371.014     -90.707    -370.914
  N     -369.654     -90.896    -368.168
  C     -368.595     -90.897    -367.381
  N     -367.436     -90.652    -368.077
  O     -364.848     -93.418    -361.637
  O     -365.555     -91.070    -360.885
  H     -364.030     -87.973    -367.474
  H     -363.998     -93.125    -361.260
  H     -369.301     -90.495    -372.676
  H     -368.620     -91.068    -366.313
  H     -365.399     -91.055    -368.189
  H     -366.192     -88.330    -367.929
  H     -367.192     -90.307    -373.647
  H     -366.945     -88.640    -365.643
  H     -365.802     -90.109    -372.631
  H     -364.434     -90.375    -365.261
  H     -365.780     -89.750    -363.218
  H     -367.167     -90.613    -363.923
  P     -365.766     -86.615    -364.578
  C     -364.215     -86.873    -362.505
  O     -365.539     -86.854    -363.010
  O     -367.320     -86.920    -364.798
  O     -365.371     -85.279    -365.108
  H     -367.833     -86.094    -364.773
  H     -363.576     -86.155    -363.030
  H     -363.799     -87.882    -362.624
  H     -364.235     -86.616    -361.444
  H     -368.437     -94.380    -361.253
  H     -367.092     -94.020    -360.197
  H     -366.809     -94.786    -361.742

 3  4  5  6  7  8  9  10  11  12  23  26  30  31  33  0
 6-311+G(2d,p)
 ****
 35  36  37  38 0
 6-311+G(2d,p)
 ****
 1  2  13  14  15  16  17  18  19  20  21  22  24  25  27  28  29 0
 3-21G
 ****
 32  34  39  40  41  42  43  44  45  46  47  48  49 0
 3-21G
 ****


