%nproc=1
%NoSave
%Mem=1900MB
#P OB98/GEN NMR

erre ene a

0 1
  C     -538.036     166.213    -230.696
  O     -538.287     165.248    -229.694
  P     -539.751     165.094    -229.049
  C     -540.296     163.063    -230.530
  O     -540.668     164.386    -230.159
  C     -541.510     162.274    -231.020
  O     -541.057     161.000    -231.539
  C     -542.529     161.993    -229.924
  O     -543.842     162.050    -230.487
  C     -542.251     160.554    -229.512
  O     -543.425     159.929    -228.962
  C     -541.762     159.958    -230.832
  N     -541.252     154.849    -230.906
  C     -542.302     155.647    -231.191
  N     -542.372     156.994    -231.126
  C     -541.186     157.517    -230.774
  C     -540.028     156.825    -230.447
  C     -540.090     155.426    -230.521
  N     -539.010     154.607    -230.241
  N     -539.016     157.701    -230.093
  C     -539.551     158.894    -230.224
  N     -540.857     158.836    -230.633
  O     -540.319     166.350    -228.486
  O     -539.584     163.959    -227.937
  H     -543.638     160.407    -228.131
  H     -540.124     164.175    -227.152
  H     -543.201     155.136    -231.517
  H     -539.049     159.826    -230.015
  H     -542.600     159.617    -231.463
  H     -541.473     160.533    -228.743
  H     -542.454     162.689    -229.079
  H     -541.966     162.820    -231.849
  H     -539.871     162.567    -229.650
  H     -539.111     153.628    -230.441
  H     -538.100     155.038    -230.129
  H     -539.523     163.105    -231.304
  P     -545.049     162.240    -229.436
  C     -544.970     164.812    -229.862
  O     -544.909     163.749    -228.928
  O     -545.069     161.171    -228.396
  O     -546.321     162.243    -230.415
  H     -546.070     162.528    -231.327
  H     -544.817     165.756    -229.325
  H     -545.958     164.834    -230.332
  H     -544.192     164.697    -230.622
  H     -537.010     166.159    -230.994
  H     -538.245     167.189    -230.311
  H     -538.664     166.021    -231.541

 3  4  5  6  7  8  9  10  11  12  22  25  29  30  31  32 0
 6-311+G(2d,p)
 ****
 33  36  37 0
 6-311+G(2d,p)
 ****
 1  2  13  14  15  16  17  18  19  20  21  23  24  26 0
 3-21G
 ****
 27  28  34  35  38  39  40  41  42  43  44  45  46  47  48 0
 3-21G
 ****


