%nproc=1
%NoSave
%Mem=1900MB
#P OB98/GEN NMR

erre ene a

0 1
  C     -555.163    1194.561     157.961
  O     -555.183    1193.411     157.083
  P     -554.790    1191.950     157.606
  C     -552.251    1192.243     157.490
  O     -553.387    1192.120     158.350
  C     -551.206    1191.162     157.859
  O     -550.721    1191.428     159.195
  C     -551.730    1189.732     157.895
  O     -551.727    1189.059     156.630
  C     -550.671    1189.078     158.782
  O     -549.497    1188.794     158.034
  C     -550.411    1190.151     159.828
  N     -551.340    1187.172     163.895
  C     -550.436    1187.085     162.882
  N     -550.287    1187.880     161.801
  C     -551.098    1188.955     161.909
  C     -552.054    1189.208     162.867
  C     -552.142    1188.274     163.944
  N     -553.041    1188.380     164.977
  N     -552.731    1190.370     162.610
  C     -552.184    1190.829     161.500
  N     -551.175    1190.009     161.056
  O     -554.854    1190.886     156.558
  O     -555.809    1191.688     158.819
  H     -548.797    1188.523     158.656
  H     -555.842    1190.709     159.028
  H     -549.790    1186.189     162.907
  H     -552.488    1191.740     160.992
  H     -549.337    1190.204     160.132
  H     -550.999    1188.125     159.214
  H     -552.693    1189.671     158.397
  H     -550.371    1191.263     157.172
  H     -551.792    1193.224     157.674
  H     -552.945    1187.722     165.734
  H     -553.523    1189.268     165.093
  H     -552.531    1192.147     156.449
  P     -552.554    1187.662     156.568
  C     -550.624    1185.971     156.984
  O     -551.730    1186.641     157.505
  O     -552.834    1187.210     155.183
  O     -553.870    1187.993     157.412
  H     -553.724    1188.109     158.364
  H     -550.104    1185.449     157.833
  H     -549.916    1186.648     156.552
  H     -550.916    1185.223     156.251
  H     -555.457    1195.432     157.414
  H     -554.174    1194.699     158.346
  H     -555.843    1194.402     158.772

 3  4  5  6  7  8  9  10  11  12  22  25  29  30  31  32 0
 6-311+G(2d,p)
 ****
 33  36  37 0
 6-311+G(2d,p)
 ****
 1  2  13  14  15  16  17  18  19  20  21  23  24  26 0
 3-21G
 ****
 27  28  34  35  38  39  40  41  42  43  44  45  46  47  48 0
 3-21G
 ****


