%nproc=1
%NoSave
%Mem=1900MB
#P OB98/GEN NMR

erre ene a

0 1
  C       44.910     451.929     623.188
  O       44.825     453.322     623.450
  H       45.454     451.452     624.015
  H       45.459     451.746     622.261
  H       43.910     451.492     623.129
  P       44.079     454.245     622.373
  C       43.126     455.756     624.246
  O       42.831     454.897     623.147
  C       42.309     455.345     625.465
  O       42.570     453.968     625.805
  C       42.610     456.169     626.719
  O       41.917     457.406     626.675
  C       42.096     455.224     627.796
  O       40.661     455.279     627.843
  C       42.557     453.860     627.257
  N       45.208     450.420     629.885
  C       43.839     450.536     629.696
  N       43.073     449.627     630.342
  N       43.285     451.468     628.974
  C       44.174     452.336     628.446
  C       45.543     452.335     628.568
  C       46.158     451.271     629.332
  O       47.361     451.119     629.505
  N       46.113     453.426     627.945
  C       45.084     454.069     627.420
  N       43.882     453.452     627.705
  O       43.710     453.590     621.077
  O       45.072     455.481     622.167
  H       40.380     454.688     628.567
  H       45.683     455.324     621.418
  H       45.577     449.687     630.468
  H       45.154     454.962     626.820
  H       41.864     453.051     627.526
  H       42.461     455.475     628.797
  H       43.420     449.092     631.122
  H       43.681     456.312     626.863
  H       42.067     449.733     630.258
  H       41.247     455.418     625.198
  H       42.877     456.778     623.940
  H       44.199     455.712     624.483
  P       42.699     458.808     626.835
  C       41.341     459.920     624.931
  O       42.618     459.488     625.383
  O       44.077     458.692     627.391
  O       41.716     459.715     627.701
  H       41.847     459.623     628.684
  H       41.435     460.351     623.956
  H       40.952     460.651     625.608
  H       40.676     459.083     624.889

 6  7  8  9  10  11  12  13  14  15  26  29  33  34 0
 6-311+G(2d,p)
 ****
 36  38  39  40  41 0
 6-311+G(2d,p)
 ****
 1  2  3  4  5  16  17  18  19  20  21  22  23  24  25 0
 3-21G
 ****
 27  28  30  31  32  35  37  42  43  44  45  46  47 0
 3-21G
 ****
 48  49 0
 3-21G
 ****


