%nproc=1
%NoSave
%Mem=1900MB
#P OB98/GEN NMR

erre ene a

0 1
  C     -492.406     276.977    -324.183
  O     -491.714     275.856    -324.718
  P     -492.056     275.296    -326.195
  C     -493.268     272.995    -326.294
  O     -493.358     274.389    -325.973
  C     -492.594     272.237    -325.170
  O     -493.283     272.513    -323.912
  C     -492.609     270.735    -325.335
  O     -491.642     270.304    -326.277
  C     -492.350     270.286    -323.888
  O     -490.945     270.391    -323.560
  C     -493.155     271.346    -323.097
  N     -494.460     270.832    -322.647
  C     -494.446     269.801    -321.701
  O     -493.380     269.337    -321.288
  N     -495.638     269.324    -321.224
  C     -496.754     269.821    -321.671
  N     -497.913     269.359    -321.136
  C     -496.806     270.882    -322.712
  C     -495.650     271.345    -323.134
  O     -490.923     274.608    -326.886
  O     -492.637     276.575    -326.979
  H     -490.678     271.330    -323.770
  H     -491.933     277.089    -327.434
  H     -497.767     271.271    -323.057
  H     -495.600     272.144    -323.876
  H     -492.569     271.657    -322.205
  H     -492.669     269.246    -323.682
  H     -493.588     270.381    -325.655
  H     -491.551     272.629    -325.064
  H     -497.807     268.774    -320.306
  H     -492.664     272.900    -327.198
  H     -498.777     269.890    -321.206
  H     -494.285     272.614    -326.513
  P     -491.708     268.795    -326.814
  C     -489.794     267.431    -325.703
  O     -491.142     267.858    -325.627
  O     -490.580     268.733    -327.953
  O     -493.069     268.416    -327.330
  H     -490.975     268.800    -328.825
  H     -489.494     267.033    -324.733
  H     -489.120     268.256    -325.984
  H     -489.736     266.604    -326.449
  H     -492.036     277.189    -323.201
  H     -493.452     276.759    -324.131
  H     -492.250     277.827    -324.814

 3  4  5  6  7  8  9  10  11  12  13  23  27  28  29  30  32 0
 6-311+G(2d,p)
 ****
 34  35 0
 6-311+G(2d,p)
 ****
 1  2  14  15  16  17  18  19  20  21  22  24  25  26 0
 3-21G
 ****
 31  33  36  37  38  39  40  41  42  43  44  45  46 0
 3-21G
 ****


