%nproc=1
%NoSave
%Mem=1900MB
#P OB98/GEN NMR

erre ene a

0 1
  C      -13.839      -5.633      15.814
  O      -15.048      -6.381      15.721
  P      -15.739      -6.496      14.280
  C      -17.450      -4.509      14.301
  O      -16.215      -5.028      13.847
  C      -18.013      -3.475      13.308
  O      -19.256      -2.954      13.844
  C      -17.132      -2.254      13.070
  O      -17.547      -1.620      11.857
  C      -17.496      -1.376      14.247
  O      -17.116      -0.020      14.029
  C      -19.012      -1.634      14.396
  N      -19.489      -1.571      15.795
  C      -19.508      -0.334      16.433
  O      -19.150       0.717      15.905
  N      -19.922      -0.336      17.738
  C      -20.348      -1.421      18.440
  O      -20.624      -1.383      19.633
  C      -20.440      -2.674      17.680
  C      -20.004      -2.695      16.419
  O      -17.100      -7.279      14.578
  O      -14.899      -7.195      13.265
  H      -17.493       0.499      14.777
  H      -17.033      -8.201      14.269
  H      -19.877       0.542      18.233
  H      -20.839      -3.545      18.185
  H      -20.048      -3.619      15.848
  H      -19.595      -0.902      13.822
  H      -16.968      -1.721      15.141
  H      -16.061      -2.466      13.032
  H      -18.246      -3.975      12.362
  H      -17.324      -4.057      15.287
  H      -18.171      -5.326      14.421
  P      -16.579      -1.724      10.584
  C      -14.879      -0.021      11.484
  O      -15.106      -1.364      11.107
  O      -17.025      -0.999       9.360
  O      -16.484      -3.306      10.337
  H      -16.174      -3.478       9.429
  H      -14.109       0.002      12.259
  H      -15.788       0.446      11.873
  H      -14.527       0.542      10.616
  H      -13.492      -5.640      16.826
  H      -14.019      -4.624      15.506
  H      -13.098      -6.073      15.180

 3  4  5  6  7  8  9  10  11  12  13  23  28  29  30  31  32 0
 6-311+G(2d,p)
 ****
 33  34 0
 6-311+G(2d,p)
 ****
 1  2  14  15  16  17  18  19  20  21  22  24  25  26  27 0
 3-21G
 ****
 35  36  37  38  39  40  41  42  43  44  45 0
 3-21G
 ****


