%nproc=1
%NoSave
%Mem=1900MB
#P OB98/GEN NMR

erre ene a

0 1
  C      173.277      63.980      19.246
  O      173.385      63.985      20.655
  H      174.045      63.318      18.839
  H      173.440      64.987      18.853
  H      172.296      63.612      18.933
  P      172.248      64.719      21.515
  C      173.465      66.992      21.417
  O      172.281      66.268      21.102
  C      173.481      68.315      20.657
  O      173.490      68.074      19.234
  C      172.265      69.197      20.920
  O      172.362      69.828      22.184
  C      172.338      70.141      19.726
  O      173.303      71.177      19.951
  C      172.806      69.182      18.605
  N      171.712      68.709      17.760
  C      171.472      69.429      16.594
  O      172.107      70.441      16.287
  N      170.461      68.961      15.794
  C      169.632      67.916      16.086
  O      168.706      67.567      15.359
  C      169.910      67.210      17.346
  C      170.920      67.632      18.111
  O      172.279      64.462      22.986
  O      170.885      64.201      20.856
  H      173.262      71.770      19.174
  H      170.502      63.491      21.405
  H      170.267      69.480      14.952
  H      169.268      66.382      17.611
  H      171.136      67.130      19.048
  H      173.542      69.681      17.963
  H      171.385      70.636      19.525
  H      171.343      68.608      20.847
  H      174.410      68.845      20.914
  H      174.334      66.392      21.123
  H      173.498      67.163      22.497
  P      171.055      70.369      22.929
  C      171.244      72.767      22.046
  O      170.463      71.580      22.054
  O      171.230      70.680      24.379
  O      169.975      69.204      22.714
  H      169.847      68.714      23.551
  H      170.764      73.506      21.438
  H      172.214      72.553      21.648
  H      171.342      73.136      23.045

 6  7  8  9  10  11  12  13  14  15  16  26  31  32  33  34  35 0
 6-311+G(2d,p)
 ****
 36  37 0
 6-311+G(2d,p)
 ****
 1  2  3  4  5  17  18  19  20  21  22  23  24  25 0
 3-21G
 ****
 27  28  29  30  38  39  40  41  42  43  44  45 0
 3-21G
 ****


