%nproc=1
%NoSave
%Mem=1900MB
#P OB98/GEN NMR

erre ene a

0 1
  C       41.703      68.741      47.167
  O       41.334      67.719      46.261
  H       41.747      69.689      46.624
  H       42.691      68.530      47.587
  H       40.965      68.826      47.968
  P       41.031      66.272      46.894
  C       38.588      66.143      45.934
  O       39.906      65.620      45.951
  C       37.832      65.650      44.700
  O       38.468      66.192      43.517
  C       37.803      64.126      44.558
  O       36.531      63.740      44.027
  C       38.896      63.843      43.540
  O       38.693      62.601      42.871
  C       38.818      65.094      42.651
  N       40.073      65.351      41.942
  C       40.245      64.708      40.713
  O       39.376      63.948      40.280
  N       41.415      64.902      40.022
  C       42.363      65.623      40.543
  N       43.506      65.760      39.815
  C       42.242      66.279      41.862
  C       41.083      66.111      42.494
  O       40.236      66.661      48.227
  O       42.247      65.434      47.116
  H       39.370      62.522      42.160
  H       39.595      67.380      48.103
  H       43.065      66.857      42.261
  H       40.908      66.564      43.464
  H       38.018      64.989      41.906
  H       39.871      63.797      44.039
  H       37.985      63.601      45.495
  H       36.816      66.065      44.729
  H       43.552      65.278      38.923
  H       38.614      67.238      45.932
  H       44.324      66.249      40.146
  H       38.082      65.814      46.847
  P       35.938      62.296      44.391
  C       34.128      62.257      46.228
  O       34.408      62.459      44.850
  O       36.785      61.452      45.287
  O       35.788      61.600      42.946
  H       36.036      60.659      43.036
  H       33.081      62.393      46.403
  H       34.682      62.962      46.812
  H       34.410      61.263      46.507

 6  7  8  9  10  11  12  13  14  15  16  26  30  31  32  33  35 0
 6-311+G(2d,p)
 ****
 37  38 0
 6-311+G(2d,p)
 ****
 1  2  3  4  5  17  18  19  20  21  22  23  24  25 0
 3-21G
 ****
 27  28  29  34  36  39  40  41  42  43  44  45  46 0
 3-21G
 ****


