%nproc=1
%NoSave
%Mem=1900MB
#P OB98/GEN NMR

erre ene a

0 1
  C     -143.829     -41.163     -76.242
  O     -144.663     -41.819     -77.174
  H     -143.140     -41.895     -75.812
  H     -144.428     -40.728     -75.438
  H     -143.249     -40.383     -76.739
  P     -145.796     -40.930     -77.883
  C     -144.428     -40.780     -80.087
  O     -145.060     -40.078     -79.027
  C     -144.329     -39.877     -81.311
  O     -143.735     -40.604     -82.412
  C     -145.672     -39.383     -81.830
  O     -146.184     -38.310     -81.060
  C     -145.300     -38.968     -83.243
  O     -144.748     -37.643     -83.275
  C     -144.238     -40.020     -83.630
  N     -144.769     -41.031     -84.541
  C     -143.821     -41.777     -85.233
  O     -142.607     -41.613     -85.102
  N     -144.313     -42.698     -86.117
  C     -145.631     -42.914     -86.397
  O     -146.005     -43.703     -87.253
  C     -146.589     -42.104     -85.624
  C     -146.121     -41.206     -84.751
  O     -146.153     -39.841     -76.765
  O     -146.998     -41.685     -78.340
  H     -146.995     -40.074     -76.332
  H     -143.961     -37.662     -82.696
  H     -143.641     -43.240     -86.636
  H     -147.643     -42.255     -85.817
  H     -146.810     -40.585     -84.185
  H     -143.385     -39.537     -84.123
  H     -146.168     -38.964     -83.902
  H     -146.388     -40.213     -81.882
  H     -143.673     -39.031     -81.065
  H     -145.020     -41.665     -80.342
  H     -143.435     -41.104     -79.758
  P     -147.664     -37.778     -81.377
  C     -148.955     -39.806     -80.315
  O     -148.603     -39.077     -81.477
  O     -147.502     -37.299     -82.893
  O     -148.142     -36.731     -80.432
  H     -146.900     -37.861     -83.407
  H     -149.581     -40.630     -80.587
  H     -149.482     -39.166     -79.639
  H     -148.068     -40.172     -79.842

 6  7  8  9  10  11  12  13  14  15  16  27  31  32  33  34  35 0
 6-311+G(2d,p)
 ****
 36  37 0
 6-311+G(2d,p)
 ****
 1  2  3  4  5  17  18  19  20  21  22  23  24  25 0
 3-21G
 ****
 26  28  29  30  38  39  40  41  42  43  44  45 0
 3-21G
 ****


