%nproc=1
%NoSave
%Mem=1900MB
#P OB98/GEN NMR

erre ene a

0 1
  C      358.580    -229.855    -526.668
  O      358.924    -228.838    -525.745
  H      358.100    -229.391    -527.535
  H      357.876    -230.563    -526.224
  H      359.477    -230.382    -526.999
  P      359.501    -229.276    -524.315
  C      362.057    -229.537    -524.634
  O      360.987    -228.680    -524.249
  C      363.306    -228.715    -524.940
  O      363.216    -228.142    -526.259
  C      363.495    -227.541    -523.989
  O      363.981    -227.978    -522.737
  C      364.445    -226.671    -524.791
  O      365.794    -227.145    -524.690
  C      363.901    -226.868    -526.227
  N      363.013    -225.786    -526.644
  C      363.624    -224.698    -527.278
  O      364.840    -224.690    -527.466
  N      362.839    -223.641    -527.665
  C      361.561    -223.669    -527.456
  N      360.839    -222.590    -527.863
  C      360.874    -224.802    -526.801
  C      361.652    -225.813    -526.422
  O      359.404    -230.730    -523.964
  O      358.695    -228.354    -523.284
  H      365.952    -227.296    -523.733
  H      357.873    -228.797    -523.003
  H      359.805    -224.787    -526.651
  H      361.228    -226.686    -525.939
  H      364.724    -226.932    -526.948
  H      364.427    -225.641    -524.452
  H      362.555    -226.993    -523.868
  H      364.175    -229.384    -524.918
  H      361.354    -221.832    -528.300
  H      361.732    -230.078    -525.531
  H      359.832    -222.540    -527.831
  H      362.269    -230.270    -523.843
  P      364.256    -226.928    -521.553
  C      361.788    -226.669    -520.848
  O      363.076    -227.167    -520.489
  O      364.453    -225.517    -521.993
  O      365.536    -227.552    -520.810
  H      366.361    -227.418    -521.342
  H      361.091    -226.887    -520.066
  H      361.465    -227.137    -521.755
  H      361.843    -225.610    -520.993

 6  7  8  9  10  11  12  13  14  15  16  26  30  31  32  33  35 0
 6-311+G(2d,p)
 ****
 37  38 0
 6-311+G(2d,p)
 ****
 1  2  3  4  5  17  18  19  20  21  22  23  24  25 0
 3-21G
 ****
 27  28  29  34  36  39  40  41  42  43  44  45  46 0
 3-21G
 ****


