%nproc=1
%NoSave
%Mem=1900MB
#P OB98/GEN NMR

erre ene a

0 1
  C     -511.998    -697.937    -383.947
  O     -511.440    -698.592    -382.819
  H     -512.960    -698.395    -384.175
  H     -511.335    -698.049    -384.811
  H     -512.154    -696.878    -383.725
  P     -509.998    -698.085    -382.337
  C     -511.019    -698.535    -380.013
  O     -509.862    -698.645    -380.835
  C     -511.377    -699.893    -379.406
  O     -511.725    -700.805    -380.475
  C     -510.222    -700.527    -378.621
  O     -510.749    -701.189    -377.468
  C     -509.655    -701.552    -379.583
  O     -508.993    -702.617    -378.913
  C     -510.902    -701.975    -380.356
  N     -508.969    -705.989    -382.838
  C     -509.312    -705.810    -381.550
  N     -509.846    -704.710    -380.972
  C     -510.048    -703.743    -381.891
  C     -509.741    -703.791    -383.237
  C     -509.170    -704.975    -383.720
  N     -508.792    -705.172    -385.025
  N     -510.063    -702.581    -383.843
  C     -510.560    -701.836    -382.876
  N     -510.556    -702.488    -381.671
  O     -509.728    -696.628    -382.503
  O     -509.023    -699.064    -383.155
  H     -508.171    -702.269    -378.506
  H     -509.342    -699.976    -383.133
  H     -509.146    -706.658    -380.883
  H     -510.929    -700.814    -382.991
  H     -511.475    -702.749    -379.845
  H     -508.928    -701.076    -380.249
  H     -509.467    -699.799    -378.315
  H     -512.269    -699.777    -378.780
  H     -511.867    -698.168    -380.600
  H     -508.400    -706.056    -385.281
  H     -508.951    -704.424    -385.700
  H     -510.804    -697.815    -379.224
  P     -510.200    -700.771    -376.025
  C     -512.548    -700.956    -374.962
  O     -511.187    -701.367    -374.906
  O     -509.836    -699.332    -375.860
  O     -508.907    -701.706    -375.861
  H     -508.210    -701.199    -375.402
  H     -513.094    -701.421    -374.168
  H     -512.970    -701.246    -375.902
  H     -512.604    -699.892    -374.859

 6  7  8  9  10  11  12  13  14  15  25  28  32  33  34  35 0
 6-311+G(2d,p)
 ****
 36  39  40 0
 6-311+G(2d,p)
 ****
 1  2  3  4  5  16  17  18  19  20  21  22  23  24 0
 3-21G
 ****
 26  27  29  30  31  37  38  41  42  43  44  45  46  47 0
 3-21G
 ****
 48 0
 3-21G
 ****


