%nproc=1
%NoSave
%Mem=1900MB
#P OB98/GEN NMR

erre ene a

0 1
  C     -260.942     381.340     775.326
  O     -261.570     380.099     775.610
  H     -260.041     381.145     774.742
  H     -260.655     381.846     776.255
  H     -261.604     381.980     774.745
  P     -262.889     380.100     776.520
  C     -264.670     379.291     774.837
  O     -263.847     378.940     775.935
  C     -265.135     378.022     774.100
  O     -263.972     377.436     773.462
  C     -265.741     376.976     775.057
  O     -267.034     376.530     774.652
  C     -264.638     375.929     775.174
  O     -265.088     374.624     775.493
  C     -263.906     376.041     773.831
  N     -262.521     375.583     773.875
  C     -262.151     374.551     773.000
  O     -262.908     374.017     772.188
  N     -260.836     374.141     773.074
  C     -259.898     374.639     773.935
  O     -258.738     374.234     773.951
  C     -260.348     375.698     774.847
  C     -261.619     376.121     774.773
  O     -263.555     381.427     776.693
  O     -262.398     379.494     777.916
  H     -265.625     374.680     776.309
  H     -262.282     380.213     778.563
  H     -260.559     373.405     772.444
  H     -259.629     376.124     775.539
  H     -261.978     376.913     775.425
  H     -264.428     375.463     773.054
  H     -263.952     376.238     775.983
  H     -265.928     377.411     776.049
  H     -265.839     378.306     773.311
  H     -264.102     379.924     774.170
  H     -265.556     379.847     775.183
  P     -268.251     376.232     775.644
  C     -268.981     378.738     775.330
  O     -269.364     377.360     775.424
  O     -267.868     375.912     777.063
  O     -268.926     374.905     775.004
  H     -269.284     374.387     775.763
  H     -269.853     379.341     775.185
  H     -268.315     378.868     774.502
  H     -268.489     379.034     776.233

 6  7  8  9  10  11  12  13  14  15  16  26  31  32  33  34  35 0
 6-311+G(2d,p)
 ****
 36  37 0
 6-311+G(2d,p)
 ****
 1  2  3  4  5  17  18  19  20  21  22  23  24  25 0
 3-21G
 ****
 27  28  29  30  38  39  40  41  42  43  44  45 0
 3-21G
 ****


