%nproc=1
%NoSave
%Mem=1900MB
#P OB98/GEN NMR

erre ene a

0 1
  C       -9.168      63.341      22.125
  O       -9.938      62.714      23.130
  H       -8.669      62.571      21.531
  H       -8.407      63.981      22.580
  H       -9.810      63.934      21.468
  P      -10.788      63.675      24.093
  C      -11.944      61.564      25.080
  O      -11.241      62.773      25.341
  C      -12.825      61.210      26.276
  O      -11.992      60.744      27.363
  C      -13.617      62.384      26.838
  O      -14.773      62.660      26.069
  C      -13.927      61.884      28.243
  O      -15.077      61.029      28.256
  C      -12.671      61.078      28.595
  N      -11.793      62.392      33.441
  C      -12.725      61.595      32.876
  N      -12.879      61.280      31.571
  C      -11.933      61.877      30.827
  C      -10.926      62.720      31.261
  C      -10.868      62.975      32.640
  N       -9.941      63.815      33.211
  N      -10.179      63.173      30.191
  C      -10.721      62.606      29.132
  N      -11.779      61.811      29.470
  O      -12.146      63.893      23.269
  O      -10.132      64.967      24.444
  H      -15.211      60.756      29.185
  H      -12.085      64.717      22.752
  H      -13.444      61.156      33.561
  H      -10.391      62.744      28.109
  H      -12.912      60.133      29.097
  H      -14.132      62.713      28.923
  H      -12.977      63.273      26.911
  H      -13.493      60.391      25.985
  H      -11.223      60.756      24.911
  H      -12.551      61.694      24.178
  H       -9.975      63.970      34.205
  H       -9.317      64.337      32.610
  P      -15.493      64.079      26.252
  C      -17.187      64.088      24.279
  O      -16.985      63.946      25.678
  O      -14.753      65.008      25.180
  O      -15.414      64.644      27.631
  H      -14.079      65.561      25.617
  H      -18.227      63.974      24.055
  H      -16.626      63.339      23.760
  H      -16.860      65.058      23.968

 6  7  8  9  10  11  12  13  14  15  25  28  32  33  34  35 0
 6-311+G(2d,p)
 ****
 36  37  40 0
 6-311+G(2d,p)
 ****
 1  2  3  4  5  16  17  18  19  20  21  22  23  24 0
 3-21G
 ****
 26  27  29  30  31  38  39 41  42  43  44  45  46  47  48 0
 3-21G
 ****


