%nproc=1
%NoSave
%Mem=1900MB
#P OB98/GEN NMR

erre ene a

0 1
  C     -192.092     483.762    -211.120
  O     -191.276     484.334    -212.151
  P     -191.726     485.736    -212.780
  C     -192.314     488.120    -211.915
  O     -191.870     486.810    -211.598
  C     -191.755     489.137    -210.915
  O     -192.036     488.758    -209.551
  C     -190.243     489.293    -210.985
  O     -189.858     490.170    -212.036
  C     -189.948     489.924    -209.634
  O     -190.238     491.337    -209.682
  C     -190.947     489.210    -208.716
  N     -188.799     487.600    -204.354
  C     -189.220     488.819    -204.756
  N     -189.765     489.174    -205.938
  C     -189.872     488.108    -206.747
  C     -189.485     486.805    -206.478
  C     -188.924     486.561    -205.215
  N     -188.501     485.316    -204.811
  N     -189.745     485.983    -207.556
  C     -190.292     486.775    -208.456
  N     -190.384     488.068    -208.019
  O     -193.246     485.464    -213.215
  O     -190.897     486.173    -213.943
  H     -189.807     491.743    -208.906
  H     -193.453     485.964    -214.024
  H     -189.101     489.621    -204.027
  H     -190.641     486.458    -209.431
  H     -191.367     489.880    -207.956
  H     -188.900     489.827    -209.346
  H     -189.748     488.312    -211.059
  H     -192.234     490.105    -211.110
  H     -193.408     488.152    -211.913
  H     -188.130     485.214    -203.877
  H     -188.612     484.535    -205.439
  H     -192.005     488.368    -212.938
  P     -188.957     489.552    -213.212
  C     -189.614     488.941    -215.651
  O     -189.762     489.837    -214.570
  O     -189.108     487.976    -212.991
  O     -187.534     489.991    -213.189
  H     -188.298     487.515    -213.292
  H     -190.434     489.100    -216.355
  H     -189.637     487.901    -215.311
  H     -188.667     489.139    -216.166
  H     -191.666     482.833    -210.802
  H     -193.078     483.591    -211.499
  H     -192.141     484.435    -210.289

 3  4  5  6  7  8  9  10  11  12  22  25  29  30  31  32 0
 6-311+G(2d,p)
 ****
 33  36  37 0
 6-311+G(2d,p)
 ****
 1  2  13  14  15  16  17  18  19  20  21  23  24  26 0
 3-21G
 ****
 27  28  34  35  38  39  40  41  42  43  44  45  46  47  48 0
 3-21G
 ****


