%nproc=1
%NoSave
%Mem=1900MB
#P OB98/GEN NMR

erre ene a

0 1
  C     -236.071    -142.302     775.413
  O     -236.101    -141.537     774.227
  P     -236.567    -139.996     774.250
  C     -236.464    -140.036     771.661
  O     -237.262    -139.747     772.814
  C     -237.337    -140.543     770.529
  O     -238.096    -141.708     770.926
  C     -238.367    -139.535     770.015
  O     -237.749    -138.560     769.196
  C     -239.346    -140.446     769.306
  O     -238.895    -140.754     767.968
  C     -239.331    -141.720     770.177
  N     -240.497    -141.812     771.050
  C     -241.015    -143.084     771.243
  O     -240.529    -144.073     770.656
  N     -242.147    -143.245     772.032
  C     -242.685    -142.191     772.585
  N     -243.784    -142.410     773.361
  C     -242.186    -140.816     772.376
  C     -241.100    -140.693     771.604
  O     -235.510    -139.013     774.637
  O     -237.820    -140.017     775.251
  H     -238.763    -139.903     767.510
  H     -237.530    -140.108     776.195
  H     -242.681    -139.968     772.826
  H     -240.658    -139.721     771.400
  H     -239.299    -142.625     769.552
  H     -240.348    -140.000     769.196
  H     -238.867    -139.062     770.878
  H     -236.678    -140.854     769.691
  H     -244.118    -143.358     773.434
  H     -235.739    -140.818     771.944
  H     -244.313    -141.647     773.781
  H     -235.911    -139.131     771.374
  P     -237.641    -137.050     769.717
  C     -236.834    -136.137     767.440
  O     -237.832    -136.073     768.451
  O     -236.446    -136.739     770.572
  O     -238.990    -136.821     770.562
  H     -238.782    -136.368     771.385
  H     -237.241    -135.721     766.524
  H     -236.538    -137.168     767.255
  H     -235.964    -135.558     767.756
  H     -235.736    -143.293     775.190
  H     -237.053    -142.344     775.835
  H     -235.401    -141.848     776.113

 3  4  5  6  7  8  9  10  11  12  13  23  27  28  29  30  32 0
 6-311+G(2d,p)
 ****
 34  35 0
 6-311+G(2d,p)
 ****
 1  2  14  15  16  17  18  19  20  21  22  24  25  26 0
 3-21G
 ****
 31  33  36  37  38  39  40  41  42  43  44  45  46 0
 3-21G
 ****


