%nproc=1
%NoSave
%Mem=1900MB
#P OB98/GEN NMR

erre ene a

0 1
  C     -131.749    -508.919    -230.863
  O     -132.599    -509.556    -231.797
  H     -131.647    -509.566    -229.989
  H     -132.176    -507.965    -230.546
  H     -130.759    -508.759    -231.296
  P     -132.947    -508.789    -233.160
  C     -134.818    -507.128    -233.797
  O     -133.973    -507.620    -232.765
  C     -135.080    -505.635    -233.599
  O     -135.883    -505.419    -232.423
  C     -133.819    -504.795    -233.421
  O     -133.232    -504.500    -234.680
  C     -134.398    -503.561    -232.747
  O     -135.064    -502.743    -233.728
  C     -135.434    -504.183    -231.793
  N     -135.689    -503.001    -226.864
  C     -136.253    -502.371    -227.955
  N     -136.959    -501.248    -227.702
  N     -136.127    -502.795    -229.186
  C     -135.333    -503.887    -229.298
  C     -134.705    -504.587    -228.295
  C     -134.909    -504.148    -226.929
  O     -134.447    -504.692    -225.932
  N     -133.910    -505.586    -228.799
  C     -134.099    -505.521    -230.104
  N     -134.949    -504.496    -230.460
  O     -133.413    -509.646    -234.297
  O     -131.605    -507.993    -233.517
  H     -134.445    -502.624    -234.472
  H     -131.030    -508.518    -234.103
  H     -135.813    -502.624    -225.939
  H     -133.652    -506.186    -230.833
  H     -136.314    -503.543    -231.668
  H     -133.639    -502.941    -232.270
  H     -136.969    -500.793    -226.801
  H     -133.109    -505.273    -232.739
  H     -137.331    -500.742    -228.496
  H     -135.667    -505.282    -234.456
  H     -135.757    -507.690    -233.753
  H     -134.358    -507.293    -234.777
  P     -131.661    -504.715    -234.944
  C     -129.919    -502.876    -235.480
  O     -130.982    -503.292    -234.639
  O     -131.322    -505.296    -236.275
  O     -131.168    -505.591    -233.699
  H     -131.298    -506.560    -233.836
  H     -129.567    -501.917    -235.162
  H     -130.268    -502.811    -236.490
  H     -129.121    -503.586    -235.424

 6  7  8  9  10  11  12  13  14  15  26  29  33  34 0
 6-311+G(2d,p)
 ****
 36  38  39  40  41 0
 6-311+G(2d,p)
 ****
 1  2  3  4  5  16  17  18  19  20  21  22  23  24  25 0
 3-21G
 ****
 27  28  30  31  32  35  37  42  43  44  45  46  47 0
 3-21G
 ****
 48  49 0
 3-21G
 ****


