%nproc=1
%NoSave
%Mem=1900MB
#P OB98/GEN NMR

erre ene a

0 1
  C      373.852    -113.846     190.352
  O      374.159    -113.709     191.726
  H      373.648    -112.853     189.939
  H      372.960    -114.467     190.233
  H      374.692    -114.287     189.811
  P      374.688    -115.025     192.479
  C      372.300    -115.387     193.429
  O      373.405    -115.952     192.737
  C      371.071    -116.284     193.281
  O      370.535    -116.182     191.944
  C      371.342    -117.766     193.520
  O      371.337    -118.089     194.905
  C      370.153    -118.387     192.807
  O      368.971    -118.260     193.630
  C      370.029    -117.498     191.565
  N      370.298    -121.071     187.979
  C      369.389    -120.913     189.006
  N      368.414    -121.844     189.100
  N      369.426    -119.931     189.871
  C      370.463    -119.082     189.662
  C      371.427    -119.132     188.682
  C      371.367    -120.219     187.725
  O      372.131    -120.393     186.784
  N      372.306    -118.086     188.787
  C      371.894    -117.416     189.839
  N      370.777    -117.981     190.417
  O      375.056    -114.490     193.948
  O      375.858    -115.701     191.842
  H      369.127    -118.805     194.428
  H      375.843    -114.972     194.267
  H      370.227    -121.853     187.350
  H      372.354    -116.519     190.226
  H      368.992    -117.370     191.239
  H      370.288    -119.451     192.607
  H      368.351    -122.655     188.500
  H      372.270    -118.091     193.032
  H      367.713    -121.730     189.828
  H      370.300    -115.916     193.971
  H      372.079    -114.400     193.012
  H      372.563    -115.280     194.489
  P      372.278    -119.298     195.394
  C      370.388    -121.077     195.507
  O      371.578    -120.637     194.851
  O      372.014    -119.351     196.973
  O      373.728    -119.137     195.072
  H      372.766    -119.775     197.420
  H      370.035    -121.974     195.042
  H      369.638    -120.318     195.432
  H      370.599    -121.269     196.538

 6  7  8  9  10  11  12  13  14  15  26  29  33  34 0
 6-311+G(2d,p)
 ****
 36  38  39  40  41 0
 6-311+G(2d,p)
 ****
 1  2  3  4  5  16  17  18  19  20  21  22  23  24  25 0
 3-21G
 ****
 27  28  30  31  32  35  37  42  43  44  45  46  47 0
 3-21G
 ****
 48  49 0
 3-21G
 ****


