%nproc=1
%NoSave
%Mem=1900MB
#P OB98/GEN NMR

erre ene a

0 1
  C       27.568     -39.139     188.122
  O       26.480     -38.227     188.120
  P       25.055     -38.761     187.608
  C       25.179     -36.793     185.901
  O       24.379     -37.556     186.788
  C       24.304     -35.877     185.039
  O       25.167     -35.049     184.217
  C       23.345     -36.610     184.089
  O       22.177     -35.790     183.962
  C       24.108     -36.626     182.776
  O       23.252     -36.810     181.651
  C       24.797     -35.264     182.838
  N       26.873     -33.217     178.701
  C       25.590     -33.093     179.201
  N       24.763     -32.256     178.531
  N       25.155     -33.727     180.257
  C       26.100     -34.515     180.829
  C       27.389     -34.752     180.409
  C       27.868     -34.014     179.261
  O       29.018     -34.025     178.834
  N       28.014     -35.679     181.197
  C       27.133     -35.947     182.140
  N       25.975     -35.228     181.989
  O       24.196     -38.832     188.953
  O       25.077     -40.061     186.866
  H       22.804     -37.677     181.753
  H       24.228     -39.729     189.345
  H       27.155     -32.689     177.895
  H       27.277     -36.636     182.957
  H       24.137     -34.442     182.528
  H       24.840     -37.441     182.782
  H       25.040     -31.714     177.728
  H       23.072     -37.613     184.434
  H       23.824     -32.124     178.894
  H       23.747     -35.208     185.703
  H       25.724     -37.476     185.238
  H       25.910     -36.208     186.473
  P       20.743     -36.505     184.060
  C       19.696     -35.026     182.204
  O       19.646     -35.458     183.551
  O       20.485     -36.568     185.642
  O       20.681     -37.870     183.455
  H       19.965     -37.362     185.859
  H       18.707     -34.664     181.910
  H       19.988     -35.842     181.530
  H       20.416     -34.206     182.109
  H       28.446     -38.646     188.486
  H       27.742     -39.489     187.126
  H       27.336     -39.969     188.756

 3  4  5  6  7  8  9  10  11  12  23  26  30  31 0
 6-311+G(2d,p)
 ****
 33  35  36  37  38 0
 6-311+G(2d,p)
 ****
 1  2  13  14  15  16  17  18  19  20  21  22  24  25 0
 3-21G
 ****
 27  28  29  32  34  39  40  41  42  43  44  45  46  47  48  49 0
 3-21G
 ****


