%nproc=1
%NoSave
%Mem=1900MB
#P OB98/GEN NMR

erre ene a

0 1
  C      336.639    -113.471     305.715
  O      336.920    -114.809     305.289
  P      337.625    -115.776     306.363
  C      340.176    -115.797     305.830
  O      339.117    -115.232     306.597
  C      341.522    -115.570     306.520
  O      341.839    -114.169     306.604
  C      341.584    -116.081     307.952
  O      341.789    -117.481     308.008
  C      342.801    -115.328     308.480
  O      344.003    -116.026     308.097
  C      342.703    -113.979     307.741
  N      343.788    -110.095     310.820
  C      344.633    -110.970     310.159
  N      345.961    -110.754     310.318
  N      344.222    -111.955     309.407
  C      342.872    -112.025     309.314
  C      341.929    -111.229     309.929
  C      342.404    -110.158     310.777
  O      341.691    -109.381     311.419
  N      340.653    -111.603     309.586
  C      340.821    -112.616     308.751
  N      342.154    -112.912     308.565
  O      337.855    -117.130     305.538
  O      336.817    -116.002     307.596
  H      343.905    -116.270     307.153
  H      337.871    -117.893     306.144
  H      344.159    -109.359     311.394
  H      340.023    -113.150     308.256
  H      343.679    -113.652     307.363
  H      342.811    -115.254     309.572
  H      346.351    -109.970     310.821
  H      340.683    -115.771     308.517
  H      346.597    -111.365     309.807
  H      342.294    -116.066     305.913
  H      340.193    -115.345     304.839
  H      339.977    -116.867     305.689
  P      340.525    -118.391     308.377
  C      340.403    -118.324     310.962
  O      339.929    -117.801     309.738
  O      341.198    -119.780     308.812
  O      339.547    -118.583     307.258
  H      340.600    -120.527     308.631
  H      341.487    -118.466     310.947
  H      339.916    -119.279     311.167
  H      340.148    -117.628     311.766
  H      336.173    -112.933     304.916
  H      337.552    -112.985     305.988
  H      335.982    -113.496     306.559

 3  4  5  6  7  8  9  10  11  12  23  26  30  31  33  0
 6-311+G(2d,p)
 ****
 35  36  37  38 0
 6-311+G(2d,p)
 ****
 1  2  13  14  15  16  17  18  19  20  21  22  24  25  27  28  29 0
 3-21G
 ****
 32  34  39  40  41  42  43  44  45  46  47  48  49 0
 3-21G
 ****


