%nproc=1
%NoSave
%Mem=1900MB
#P OB98/GEN NMR

erre ene a

0 1
  C       77.181     -46.712      15.993
  O       77.786     -45.857      15.046
  H       77.348     -46.302      16.992
  H       77.634     -47.706      15.945
  H       76.104     -46.785      15.821
  P       77.535     -46.130      13.488
  C       76.551     -43.770      13.129
  O       77.555     -44.703      12.760
  C       77.049     -42.333      12.941
  O       77.915     -41.990      14.065
  C       77.870     -42.111      11.655
  O       77.659     -40.751      11.252
  C       79.280     -42.323      12.176
  O       80.263     -41.914      11.259
  C       79.173     -41.559      13.502
  N       80.263     -41.784      14.444
  C       81.332     -40.895      14.420
  O       81.421     -39.928      13.665
  N       82.337     -41.151      15.316
  C       82.369     -42.173      16.218
  O       83.283     -42.334      17.017
  C       81.215     -43.083      16.189
  C       80.228     -42.849      15.323
  O       76.361     -46.990      13.161
  O       78.906     -46.797      12.996
  H       78.791     -47.762      12.916
  H       81.146     -42.165      11.605
  H       83.118     -40.514      15.316
  H       81.214     -43.912      16.884
  H       79.360     -43.498      15.285
  H       79.085     -40.485      13.308
  H       79.457     -43.386      12.350
  H       77.581     -42.781      10.841
  H       76.190     -41.652      12.983
  H       76.299     -43.938      14.182
  H       75.659     -43.942      12.518
  P       78.068     -40.183       9.808
  C       75.657     -40.003       8.882
  O       76.842     -39.307       9.251
  O       78.536     -41.233       8.855
  O       79.216     -39.104      10.087
  H       79.788     -39.025       9.300
  H       74.927     -39.304       8.531
  H       75.271     -40.525       9.732
  H       75.882     -40.704       8.105

 6  7  8  9  10  11  12  13  14  15  16  27  31  32  33  34  35 0
 6-311+G(2d,p)
 ****
 36  37 0
 6-311+G(2d,p)
 ****
 1  2  3  4  5  17  18  19  20  21  22  23  24  25 0
 3-21G
 ****
 26  28  29  30  38  39  40  41  42  43  44  45 0
 3-21G
 ****


