%nproc=1
%NoSave
%Mem=1900MB
#P OB98/GEN NMR

erre ene a

0 1
  C     -619.471     767.382     232.338
  O     -620.826     767.570     232.694
  H     -618.952     766.900     233.172
  H     -618.994     768.344     232.137
  H     -619.398     766.740     231.457
  P     -621.735     768.365     231.635
  C     -622.347     766.157     230.387
  O     -621.704     767.423     230.335
  C     -623.347     766.038     229.240
  O     -624.398     767.023     229.376
  C     -622.741     766.279     227.863
  O     -622.031     765.156     227.366
  C     -623.999     766.552     227.056
  O     -624.685     765.313     226.795
  C     -624.798     767.429     228.043
  N     -624.567     768.864     227.855
  C     -625.262     769.482     226.805
  O     -626.017     768.829     226.087
  N     -625.059     770.819     226.579
  C     -624.249     771.491     227.332
  N     -624.077     772.814     227.050
  C     -623.506     770.886     228.454
  C     -623.712     769.586     228.657
  O     -620.812     769.596     231.193
  O     -623.099     768.752     232.100
  H     -625.397     765.513     226.159
  H     -621.236     770.080     230.444
  H     -622.832     771.484     229.051
  H     -623.203     769.072     229.461
  H     -625.875     767.238     227.954
  H     -623.799     767.017     226.087
  H     -622.116     767.178     227.847
  H     -623.818     765.046     229.302
  H     -624.547     773.185     226.236
  H     -622.865     766.070     231.347
  H     -623.332     773.362     227.463
  H     -621.609     765.356     230.305
  P     -621.251     765.327     225.972
  C     -618.919     765.763     227.030
  O     -619.991     766.284     226.255
  O     -622.231     766.256     225.120
  O     -620.936     764.043     225.267
  H     -622.250     765.985     224.183
  H     -618.159     766.509     227.134
  H     -618.511     764.903     226.542
  H     -619.281     765.486     227.998

 6  7  8  9  10  11  12  13  14  15  16  26  30  31  32  33  35 0
 6-311+G(2d,p)
 ****
 37  38 0
 6-311+G(2d,p)
 ****
 1  2  3  4  5  17  18  19  20  21  22  23  24  25 0
 3-21G
 ****
 27  28  29  34  36  39  40  41  42  43  44  45  46 0
 3-21G
 ****


