%nproc=1
%NoSave
%Mem=1900MB
#P OB98/GEN NMR

erre ene a

0 1
  C     -281.434    -630.307      -0.630
  O     -282.425    -629.724      -1.473
  P     -283.587    -628.847      -0.797
  C     -283.046    -626.419      -1.710
  O     -283.096    -627.336      -0.639
  C     -283.559    -625.054      -1.241
  O     -282.588    -624.429      -0.370
  C     -283.836    -624.079      -2.383
  O     -285.135    -624.230      -2.912
  C     -283.611    -622.741      -1.709
  O     -284.757    -622.379      -0.907
  C     -282.391    -623.050      -0.804
  N     -281.041    -622.929      -1.387
  C     -280.297    -621.768      -1.182
  O     -280.690    -620.797      -0.542
  N     -279.045    -621.750      -1.746
  C     -278.399    -622.807      -2.331
  O     -277.261    -622.744      -2.764
  C     -279.175    -624.050      -2.385
  C     -280.437    -624.057      -1.937
  O     -283.651    -629.388       0.700
  O     -284.919    -628.945      -1.488
  H     -284.497    -621.607      -0.370
  H     -284.511    -629.815       0.873
  H     -278.526    -620.884      -1.670
  H     -278.690    -624.925      -2.798
  H     -281.009    -624.977      -1.973
  H     -282.408    -622.419       0.094
  H     -283.496    -621.937      -2.444
  H     -283.074    -624.192      -3.161
  H     -284.484    -625.211      -0.654
  H     -283.647    -626.769      -2.558
  H     -282.017    -626.334      -2.073
  P     -285.326    -624.818      -4.394
  C     -286.039    -627.193      -3.721
  O     -285.019    -626.393      -4.280
  O     -284.614    -624.093      -5.482
  O     -286.921    -624.795      -4.599
  H     -287.199    -623.983      -5.084
  H     -285.772    -628.249      -3.852
  H     -286.995    -627.007      -4.232
  H     -286.141    -626.980      -2.656
  H     -280.736    -630.856      -1.227
  H     -281.904    -630.968       0.068
  H     -280.919    -629.535      -0.098

 3  4  5  6  7  8  9  10  11  12  13  23  28  29  30  31  32 0
 6-311+G(2d,p)
 ****
 33  34 0
 6-311+G(2d,p)
 ****
 1  2  14  15  16  17  18  19  20  21  22  24  25  26  27 0
 3-21G
 ****
 35  36  37  38  39  40  41  42  43  44  45 0
 3-21G
 ****


