%nproc=1
%NoSave
%Mem=1900MB
#P OB98/GEN NMR

erre ene a

0 1
  C     -103.996    -191.667      55.096
  O     -103.169    -190.947      54.173
  P     -103.301    -191.149      52.585
  C     -102.680    -193.635      52.397
  O     -103.713    -192.666      52.243
  C     -102.256    -194.285      51.073
  O     -101.098    -195.142      51.260
  C     -103.337    -195.146      50.399
  O     -103.108    -195.035      48.993
  C     -102.982    -196.540      50.893
  O     -103.548    -197.579      50.103
  C     -101.460    -196.477      50.847
  N     -100.189    -201.416      51.317
  C     -100.633    -200.699      50.260
  N     -100.913    -199.382      50.204
  C     -100.653    -198.784      51.377
  C     -100.190    -199.384      52.538
  C      -99.962    -200.771      52.484
  N      -99.556    -201.515      53.568
  N     -100.071    -198.456      53.555
  C     -100.468    -197.317      53.014
  N     -100.829    -197.464      51.701
  O     -102.127    -190.650      51.805
  O     -104.613    -190.315      52.190
  H     -103.422    -197.353      49.164
  H     -104.423    -189.781      51.394
  H     -100.791    -201.261      49.340
  H     -100.539    -196.370      53.535
  H     -101.084    -196.624      49.829
  H     -103.355    -196.666      51.919
  H     -104.356    -194.846      50.657
  H     -101.939    -193.481      50.398
  H     -103.033    -194.413      53.087
  H      -99.509    -202.517      53.456
  H      -99.505    -201.073      54.475
  H     -101.812    -193.151      52.862
  P     -103.936    -194.014      48.080
  C     -105.758    -195.674      47.397
  O     -105.463    -194.495      48.121
  O     -103.381    -193.802      46.712
  O     -103.958    -192.648      48.923
  H     -104.169    -191.901      48.331
  H     -105.797    -195.448      46.325
  H     -106.731    -196.056      47.717
  H     -105.001    -196.446      47.576
  H     -103.744    -191.383      56.097
  H     -103.837    -192.718      54.972
  H     -105.024    -191.437      54.908

 3  4  5  6  7  8  9  10  11  12  22  25  29  30  31  32 0
 6-311+G(2d,p)
 ****
 33  36  37 0
 6-311+G(2d,p)
 ****
 1  2  13  14  15  16  17  18  19  20  21  23  24  26 0
 3-21G
 ****
 27  28  34  35  38  39  40  41  42  43  44  45  46  47  48 0
 3-21G
 ****


