%nproc=1
%NoSave
%Mem=1900MB
#P OB98/GEN NMR

erre ene a

0 1
  C     -366.052    -843.912     315.972
  O     -366.533    -845.224     316.188
  H     -365.115    -843.974     315.412
  H     -365.855    -843.419     316.926
  H     -366.769    -843.327     315.388
  P     -367.983    -845.414     316.847
  C     -367.115    -845.095     319.252
  O     -367.753    -845.972     318.331
  C     -366.505    -845.902     320.397
  O     -367.550    -846.431     321.243
  C     -365.705    -847.110     319.940
  O     -364.438    -846.732     319.415
  C     -365.650    -847.926     321.220
  O     -364.615    -847.456     322.092
  C     -367.045    -847.651     321.830
  N     -367.969    -848.765     321.606
  C     -368.323    -849.500     322.734
  O     -367.914    -849.253     323.865
  N     -369.128    -850.582     322.506
  C     -369.490    -851.066     321.277
  O     -369.995    -852.170     321.111
  C     -369.134    -850.212     320.130
  C     -368.394    -849.128     320.346
  O     -368.966    -846.179     316.026
  O     -368.476    -843.911     317.105
  H     -369.115    -843.663     316.410
  H     -363.774    -847.735     321.677
  H     -369.357    -851.149     323.311
  H     -369.467    -850.525     319.147
  H     -368.091    -848.499     319.512
  H     -366.963    -847.473     322.907
  H     -365.463    -848.979     321.019
  H     -366.266    -847.667     319.182
  H     -365.886    -845.226     321.007
  H     -367.866    -844.402     319.656
  H     -366.342    -844.518     318.726
  P     -364.054    -847.069     317.901
  C     -362.734    -849.164     318.594
  O     -362.695    -847.920     317.909
  O     -364.062    -845.907     316.967
  O     -365.145    -848.161     317.459
  H     -365.539    -847.885     316.609
  H     -361.776    -849.636     318.531
  H     -363.473    -849.795     318.146
  H     -362.982    -848.998     319.621

 6  7  8  9  10  11  12  13  14  15  16  27  31  32  33  34  35 0
 6-311+G(2d,p)
 ****
 36  37 0
 6-311+G(2d,p)
 ****
 1  2  3  4  5  17  18  19  20  21  22  23  24  25 0
 3-21G
 ****
 26  28  29  30  38  39  40  41  42  43  44  45 0
 3-21G
 ****


