%nproc=1
%NoSave
%Mem=1900MB
#P OB98/GEN NMR

erre ene a

0 1
  C     1020.543     237.331    -108.777
  O     1019.351     237.317    -108.009
  P     1018.379     236.038    -108.059
  C     1019.787     234.679    -106.393
  O     1019.249     234.739    -107.702
  C     1019.119     233.569    -105.583
  O     1019.232     232.298    -106.269
  C     1019.745     233.337    -104.221
  O     1019.417     234.362    -103.297
  C     1019.175     231.963    -103.867
  O     1017.833     232.070    -103.371
  C     1019.184     231.272    -105.250
  N     1020.282     230.327    -105.393
  C     1020.166     229.132    -104.656
  O     1019.228     228.972    -103.881
  N     1021.136     228.174    -104.819
  C     1022.177     228.428    -105.538
  N     1023.076     227.413    -105.711
  C     1022.410     229.723    -106.201
  C     1021.422     230.608    -106.103
  O     1017.544     235.922    -109.288
  O     1017.457     236.210    -106.751
  H     1016.517     236.120    -107.026
  H     1017.545     231.173    -103.138
  H     1023.329     229.907    -106.739
  H     1021.494     231.588    -106.583
  H     1018.234     230.737    -105.409
  H     1019.768     231.447    -103.109
  H     1020.832     233.265    -104.317
  H     1018.056     233.814    -105.479
  H     1022.873     226.528    -105.259
  H     1019.611     235.642    -105.897
  H     1023.734     227.388    -106.496
  H     1020.872     234.510    -106.450
  P     1020.636     235.046    -102.511
  C     1019.868     237.410    -103.221
  O     1020.919     236.469    -103.191
  O     1021.886     234.165    -102.931
  O     1020.468     235.077    -101.029
  H     1022.498     234.065    -102.172
  H     1020.308     238.412    -103.382
  H     1019.314     237.423    -102.279
  H     1019.193     237.188    -104.055
  H     1021.058     238.255    -108.619
  H     1020.300     237.231    -109.814
  H     1021.170     236.517    -108.477

 3  4  5  6  7  8  9  10  11  12  13  24  27  28  29  30  32 0
 6-311+G(2d,p)
 ****
 34  35 0
 6-311+G(2d,p)
 ****
 1  2  14  15  16  17  18  19  20  21  22  23  25  26 0
 3-21G
 ****
 31  33  36  37  38  39  40  41  42  43  44  45  46 0
 3-21G
 ****


