%nproc=1
%NoSave
%Mem=1900MB
#P OB98/GEN NMR

erre ene a

0 1
  C       47.731     419.072     317.382
  O       46.700     420.038     317.173
  P       46.679     420.791     315.750
  C       44.144     420.836     315.159
  O       45.408     420.241     314.926
  C       43.064     419.771     315.337
  O       43.286     418.993     316.519
  C       41.660     420.330     315.485
  O       41.091     420.686     314.235
  C       40.925     419.131     316.074
  O       40.543     418.222     315.029
  C       42.005     418.488     316.971
  N       39.642     417.310     321.301
  C       39.529     416.738     320.046
  N       38.689     415.685     319.936
  N       40.187     417.162     318.991
  C       41.010     418.205     319.257
  C       41.208     418.854     320.463
  C       40.453     418.394     321.611
  O       40.488     418.886     322.735
  N       42.131     419.857     320.336
  C       42.516     419.796     319.074
  N       41.859     418.813     318.374
  O       47.925     420.129     314.984
  O       46.806     422.273     315.846
  H       40.056     418.749     314.352
  H       48.286     420.754     314.323
  H       39.106     416.949     322.068
  H       43.278     420.429     318.626
  H       42.028     417.405     316.872
  H       40.003     419.410     316.614
  H       38.213     415.261     320.718
  H       41.635     421.164     316.192
  H       38.630     415.230     319.028
  H       43.104     419.093     314.461
  H       43.882     421.489     314.312
  H       44.213     421.482     316.045
  P       40.913     422.259     313.930
  C       41.837     422.534     311.516
  O       42.096     422.630     312.908
  O       41.369     422.947     315.308
  O       39.543     422.666     313.522
  H       40.910     423.799     315.418
  H       40.861     422.940     311.258
  H       41.891     421.480     311.205
  H       42.597     423.098     310.973
  H       47.631     418.650     318.360
  H       48.687     419.545     317.294
  H       47.648     418.297     316.649

 3  4  5  6  7  8  9  10  11  12  23  26  30  31  33  0
 6-311+G(2d,p)
 ****
 35  36  37  38 0
 6-311+G(2d,p)
 ****
 1  2  13  14  15  16  17  18  19  20  21  22  24  25  27  28  29 0
 3-21G
 ****
 32  34  39  40  41  42  43  44  45  46  47  48  49 0
 3-21G
 ****


