%nproc=1
%NoSave
%Mem=1900MB
#P OB98/GEN NMR

erre ene a

0 1
  C      846.692     288.863     337.534
  O      848.059     288.698     337.242
  H      846.247     289.505     336.771
  H      846.565     289.331     338.511
  H      846.166     287.902     337.516
  P      848.850     287.609     338.125
  C      848.108     285.818     336.387
  O      849.172     286.373     337.143
  C      848.661     285.107     335.138
  O      849.067     286.093     334.149
  C      849.876     284.229     335.408
  O      849.521     282.967     335.888
  C      850.455     284.147     333.997
  O      849.684     283.181     333.222
  C      850.240     285.554     333.475
  N      854.469     287.556     331.499
  C      853.570     286.650     330.948
  N      853.859     286.195     329.718
  N      852.499     286.218     331.587
  C      852.352     286.750     332.812
  C      853.171     287.665     333.458
  C      854.336     288.133     332.763
  O      855.142     288.945     333.176
  N      852.691     287.968     334.698
  C      851.579     287.236     334.823
  N      851.358     286.459     333.709
  O      847.716     287.018     339.101
  O      850.008     288.134     338.909
  H      850.025     282.307     333.448
  H      848.112     286.824     339.961
  H      855.273     287.849     330.988
  H      850.947     287.229     335.687
  H      850.019     285.581     332.397
  H      851.481     283.789     333.981
  H      854.710     286.457     329.204
  H      850.613     284.755     336.063
  H      853.203     285.535     329.291
  H      847.841     284.514     334.705
  H      847.430     286.620     336.083
  H      847.556     285.112     337.015
  P      850.240     282.453     337.261
  C      847.958     282.765     338.490
  O      849.044     281.877     338.183
  O      850.643     283.824     337.969
  O      851.393     281.545     337.051
  H      851.387     283.657     338.591
  H      847.243     282.256     339.103
  H      847.488     283.081     337.582
  H      848.333     283.619     339.014

 6  7  8  9  10  11  12  13  14  15  26  29  33  34 0
 6-311+G(2d,p)
 ****
 36  38  39  40  41 0
 6-311+G(2d,p)
 ****
 1  2  3  4  5  16  17  18  19  20  21  22  23  24  25 0
 3-21G
 ****
 27  28  30  31  32  35  37  42  43  44  45  46  47 0
 3-21G
 ****
 48  49 0
 3-21G
 ****


