%nproc=1
%NoSave
%Mem=1900MB
#P OB98/GEN NMR

erre ene a

0 1
  C      140.394     -49.641    -188.473
  O      139.039     -49.230    -188.517
  P      137.927     -50.346    -188.807
  C      137.220     -50.418    -191.322
  O      138.154     -50.829    -190.330
  C      137.601     -49.031    -191.855
  O      138.994     -48.993    -192.232
  C      136.833     -48.616    -193.107
  O      135.545     -48.108    -192.804
  C      137.726     -47.508    -193.644
  O      137.485     -46.282    -192.918
  C      139.136     -48.046    -193.329
  N      140.653     -47.441    -198.117
  C      140.241     -46.490    -197.200
  N      140.163     -45.222    -197.635
  N      139.930     -46.777    -195.952
  C      140.038     -48.102    -195.663
  C      140.437     -49.128    -196.490
  C      140.763     -48.801    -197.867
  O      141.080     -49.600    -198.745
  N      140.434     -50.327    -195.840
  C      140.036     -50.039    -194.608
  N      139.748     -48.704    -194.471
  O      136.567     -49.498    -188.899
  O      137.846     -51.429    -187.787
  H      136.554     -46.040    -193.082
  H      135.793     -50.089    -188.808
  H      140.869     -47.167    -199.067
  H      139.934     -50.754    -193.801
  H      139.808     -47.252    -192.979
  H      137.548     -47.290    -194.699
  H      140.327     -44.940    -198.587
  H      136.787     -49.434    -193.838
  H      139.806     -44.515    -196.998
  H      137.451     -48.302    -191.042
  H      136.226     -50.374    -190.883
  H      137.219     -51.147    -192.136
  P      134.468     -48.101    -193.996
  C      134.001     -45.685    -194.846
  O      134.838     -46.823    -194.893
  O      133.111     -47.670    -193.261
  O      134.341     -49.407    -194.716
  H      132.335     -48.019    -193.742
  H      134.528     -44.837    -195.295
  H      133.744     -45.431    -193.814
  H      133.079     -45.872    -195.420
  H      141.017     -48.795    -188.272
  H      140.667     -50.070    -189.415
  H      140.521     -50.369    -187.699

 3  4  5  6  7  8  9  10  11  12  23  26  30  31 0
 6-311+G(2d,p)
 ****
 33  35  36  37  38 0
 6-311+G(2d,p)
 ****
 1  2  13  14  15  16  17  18  19  20  21  22  24  25 0
 3-21G
 ****
 27  28  29  32  34  39  40  41  42  43  44  45  46  47  48  49 0
 3-21G
 ****


