%nproc=1
%NoSave
%Mem=1900MB
#P OB98/GEN NMR

erre ene a

0 1
  C       61.919     379.311    -231.848
  O       61.845     380.157    -230.716
  H       62.580     379.771    -232.586
  H       60.926     379.193    -232.289
  H       62.324     378.335    -231.569
  P       61.064     379.583    -229.435
  C       59.857     381.481    -228.080
  O       61.052     380.778    -228.366
  C       60.069     382.456    -226.920
  O       60.293     381.693    -225.706
  C       61.265     383.389    -227.113
  O       60.943     384.660    -226.542
  C       62.358     382.730    -226.288
  O       63.368     383.657    -225.898
  C       61.541     382.128    -225.134
  N       62.241     381.032    -224.471
  C       63.282     381.382    -223.601
  O       63.575     382.567    -223.434
  N       63.985     380.390    -222.973
  C       63.724     379.148    -223.238
  N       64.478     378.210    -222.605
  C       62.671     378.730    -224.186
  C       61.969     379.713    -224.749
  O       62.131     378.550    -228.840
  O       59.732     378.988    -229.743
  H       64.172     383.156    -225.640
  H       63.037     378.900    -228.813
  H       62.496     377.682    -224.383
  H       61.171     379.497    -225.449
  H       61.316     382.897    -224.383
  H       62.840     381.933    -226.869
  H       61.539     383.514    -228.162
  H       59.144     383.025    -226.772
  H       65.203     378.539    -221.984
  H       59.053     380.780    -227.824
  H       64.401     377.217    -222.777
  H       59.559     382.023    -228.984
  P       60.149     385.739    -227.419
  C       61.225     387.876    -226.428
  O       60.033     387.111    -226.592
  O       58.883     385.264    -228.039
  O       61.219     386.116    -228.562
  H       60.733     386.198    -229.405
  H       61.008     388.758    -225.863
  H       61.606     388.153    -227.389
  H       61.956     387.291    -225.910

 6  7  8  9  10  11  12  13  14  15  16  26  30  31  32  33  35 0
 6-311+G(2d,p)
 ****
 37  38 0
 6-311+G(2d,p)
 ****
 1  2  3  4  5  17  18  19  20  21  22  23  24  25 0
 3-21G
 ****
 27  28  29  34  36  39  40  41  42  43  44  45  46 0
 3-21G
 ****


