%nproc=1
%NoSave
%Mem=1900MB
#P OB98/GEN NMR

erre ene a

0 1
  C     -513.342     745.724    -896.480
  O     -513.745     744.398    -896.220
  P     -514.491     744.020    -894.860
  C     -516.869     744.599    -895.650
  O     -515.996     743.558    -895.250
  C     -518.033     743.992    -896.450
  O     -517.558     743.338    -897.660
  C     -518.811     742.909    -895.710
  O     -519.523     743.289    -894.560
  C     -519.582     742.267    -896.850
  O     -520.752     743.022    -897.150
  C     -518.558     742.359    -898.010
  N     -517.970     741.051    -898.300
  C     -518.679     740.245    -899.170
  O     -519.749     740.534    -899.670
  N     -518.125     738.987    -899.410
  C     -516.981     738.511    -898.830
  O     -516.569     737.374    -899.070
  C     -516.267     739.424    -897.930
  C     -516.768     740.623    -897.700
  O     -514.427     745.077    -893.800
  O     -513.807     742.633    -894.430
  H     -521.381     742.901    -896.430
  H     -513.910     741.910    -895.090
  H     -518.638     738.381    -900.000
  H     -515.357     739.061    -897.490
  H     -516.271     741.329    -897.040
  H     -519.051     742.727    -898.920
  H     -519.915     741.261    -896.590
  H     -518.067     742.170    -895.370
  H     -518.697     744.830    -896.760
  H     -516.331     745.305    -896.270
  H     -517.226     745.133    -894.770
  P     -519.845     742.290    -893.350
  C     -517.609     742.515    -892.060
  O     -519.007     742.764    -892.070
  O     -519.873     740.823    -893.660
  O     -521.342     742.770    -892.930
  H     -521.854     741.978    -892.610
  H     -517.211     742.832    -891.090
  H     -517.116     743.054    -892.860
  H     -517.405     741.444    -892.150
  H     -512.863     745.770    -897.436
  H     -512.657     746.044    -895.722
  H     -514.199     746.364    -896.479

 3  4  5  6  7  8  9  10  11  12  13  23  28  29  30  31  32 0
 6-311+G(2d,p)
 ****
 33  34 0
 6-311+G(2d,p)
 ****
 1  2  14  15  16  17  18  19  20  21  22  24  25  26  27 0
 3-21G
 ****
 35  36  37  38  39  40  41  42  43  44  45 0
 3-21G
 ****


