%nproc=1
%NoSave
%Mem=1900MB
#P OB98/GEN NMR

erre ene a

0 1
  C      -53.238    -164.642      96.039
  O      -53.442    -164.771      94.648
  H      -52.811    -165.575      96.416
  H      -54.188    -164.464      96.547
  H      -52.543    -163.826      96.255
  P      -53.940    -163.494      93.817
  C      -55.982    -161.925      93.874
  O      -55.267    -162.959      94.538
  C      -57.119    -161.426      94.762
  O      -56.629    -161.141      96.091
  C      -57.763    -160.133      94.272
  O      -58.612    -160.380      93.170
  C      -58.464    -159.674      95.541
  O      -59.693    -160.388      95.740
  C      -57.430    -160.063      96.624
  N      -56.590    -158.937      97.038
  C      -57.185    -158.006      97.883
  O      -58.347    -158.095      98.273
  N      -56.406    -156.934      98.232
  C      -55.155    -156.669      97.754
  O      -54.584    -155.596      97.919
  C      -54.551    -157.724      96.927
  C      -55.290    -158.785      96.599
  O      -54.054    -163.685      92.342
  O      -52.859    -162.367      94.179
  H      -52.221    -162.285      93.445
  H      -60.164    -159.932      96.465
  H      -56.844    -156.229      98.807
  H      -53.535    -157.580      96.581
  H      -54.875    -159.561      95.965
  H      -57.937    -160.454      97.516
  H      -58.711    -158.611      95.518
  H      -56.988    -159.403      94.012
  H      -57.866    -162.226      94.842
  H      -56.397    -162.330      92.945
  H      -55.292    -161.111      93.631
  P      -59.041    -159.203      92.176
  C      -60.552    -157.134      92.237
  O      -60.195    -158.347      92.885
  O      -59.360    -159.636      90.782
  O      -57.791    -158.201      92.189
  H      -57.504    -158.036      91.270
  H      -61.326    -156.647      92.793
  H      -60.902    -157.347      91.249
  H      -59.696    -156.494      92.182

 6  7  8  9  10  11  12  13  14  15  16  27  31  32  33  34  35 0
 6-311+G(2d,p)
 ****
 36  37 0
 6-311+G(2d,p)
 ****
 1  2  3  4  5  17  18  19  20  21  22  23  24  25 0
 3-21G
 ****
 26  28  29  30  38  39  40  41  42  43  44  45 0
 3-21G
 ****


