%nproc=1
%NoSave
%Mem=1900MB
#P OB98/GEN NMR

erre ene a

0 1
  C      622.998    -489.036     -87.476
  O      622.645    -488.451     -88.739
  P      623.422    -488.956     -90.045
  C      621.180    -488.914     -91.369
  O      622.559    -488.565     -91.340
  C      620.427    -488.039     -92.377
  O      620.339    -486.672     -91.937
  C      621.090    -487.980     -93.744
  O      620.765    -489.112     -94.540
  C      620.451    -486.726     -94.326
  O      619.135    -487.035     -94.824
  C      620.351    -485.812     -93.094
  N      622.975    -482.083     -95.432
  C      621.933    -482.837     -95.837
  N      621.307    -483.824     -95.168
  C      621.838    -483.986     -93.945
  C      622.896    -483.288     -93.388
  C      623.481    -482.286     -94.190
  N      624.533    -481.510     -93.769
  N      623.170    -483.737     -92.113
  C      622.281    -484.687     -91.901
  N      621.462    -484.880     -92.976
  O      623.262    -490.550     -89.967
  O      624.860    -488.553     -90.089
  H      618.750    -486.195     -95.141
  H      624.065    -490.979     -90.326
  H      621.558    -482.632     -96.835
  H      622.192    -485.254     -90.980
  H      619.428    -485.224     -93.090
  H      621.016    -486.314     -95.164
  H      622.176    -487.834     -93.650
  H      619.411    -488.444     -92.484
  H      620.739    -488.798     -90.371
  H      624.882    -480.798     -94.388
  H      624.899    -481.653     -92.837
  H      621.088    -489.978     -91.627
  P      621.919    -490.198     -94.784
  C      620.212    -490.921     -96.609
  O      621.565    -490.909     -96.170
  O      621.603    -491.307     -93.679
  O      623.301    -489.663     -94.652
  H      622.425    -491.747     -93.393
  H      620.190    -491.157     -97.675
  H      619.736    -489.951     -96.448
  H      619.663    -491.694     -96.056
  H      622.399    -488.602     -86.702
  H      624.032    -488.850     -87.273
  H      622.826    -490.091     -87.511

 3  4  5  6  7  8  9  10  11  12  22  25  29  30  31  32 0
 6-311+G(2d,p)
 ****
 33  36  37 0
 6-311+G(2d,p)
 ****
 1  2  13  14  15  16  17  18  19  20  21  23  24  26 0
 3-21G
 ****
 27  28  34  35  38  39  40  41  42  43  44  45  46  47  48 0
 3-21G
 ****


