%nproc=1
%NoSave
%Mem=1900MB
#P OB98/GEN NMR

erre ene a

0 1
  C      147.121    -394.891     230.519
  O      147.469    -395.093     229.163
  H      146.986    -395.866     230.995
  H      146.182    -394.335     230.583
  H      147.915    -394.348     231.040
  P      147.887    -393.789     228.324
  C      150.324    -392.836     228.104
  O      149.284    -393.305     228.944
  C      151.555    -392.457     228.931
  O      151.169    -391.456     229.906
  C      152.173    -393.633     229.690
  O      153.590    -393.460     229.715
  C      151.620    -393.471     231.096
  O      152.438    -394.112     232.071
  C      151.542    -391.941     231.212
  N      150.596    -391.508     232.239
  C      150.458    -390.130     232.426
  O      151.125    -389.342     231.753
  N      149.603    -389.672     233.396
  C      148.988    -390.518     234.160
  N      148.174    -390.003     235.120
  C      149.136    -391.981     234.030
  C      149.939    -392.401     233.054
  O      146.838    -392.705     228.858
  O      147.878    -393.978     226.844
  H      152.073    -393.917     232.962
  H      146.725    -392.720     229.824
  H      148.609    -392.646     234.699
  H      150.101    -393.459     232.880
  H      152.527    -391.522     231.454
  H      150.617    -393.908     231.160
  H      151.925    -394.600     229.245
  H      152.288    -391.987     228.266
  H      148.118    -388.994     235.190
  H      149.989    -391.964     227.533
  H      147.689    -390.563     235.806
  H      150.573    -393.631     227.394
  P      154.527    -394.506     228.950
  C      154.612    -395.172     226.451
  O      154.610    -394.111     227.400
  O      154.251    -395.946     229.226
  O      155.997    -394.116     229.479
  H      156.488    -394.945     229.637
  H      154.671    -394.766     225.463
  H      153.711    -395.741     226.550
  H      155.456    -395.806     226.627

 6  7  8  9  10  11  12  13  14  15  16  26  30  31  32  33  35 0
 6-311+G(2d,p)
 ****
 37  38 0
 6-311+G(2d,p)
 ****
 1  2  3  4  5  17  18  19  20  21  22  23  24  25 0
 3-21G
 ****
 27  28  29  34  36  39  40  41  42  43  44  45  46 0
 3-21G
 ****


