%nproc=1
%NoSave
%Mem=1900MB
#P OB98/GEN NMR

erre ene a

0 1
  C      572.198    -538.547     958.823
  O      571.270    -538.503     959.886
  H      572.785    -539.469     958.893
  H      572.882    -537.695     958.888
  H      571.684    -538.534     957.854
  P      570.151    -537.351     959.832
  C      571.739    -535.877     961.266
  O      570.915    -535.964     960.116
  C      572.779    -534.763     961.084
  O      573.695    -535.153     960.024
  C      572.167    -533.404     960.679
  O      572.935    -532.377     961.309
  C      572.397    -533.360     959.178
  O      572.415    -532.039     958.643
  C      573.751    -534.071     959.069
  N      574.025    -534.568     957.722
  C      574.404    -533.646     956.768
  O      574.607    -532.434     956.988
  N      574.552    -534.126     955.493
  C      574.335    -535.417     955.087
  O      574.455    -535.791     953.934
  C      573.920    -536.359     956.144
  C      573.784    -535.890     957.400
  O      569.325    -537.604     961.180
  O      569.283    -537.347     958.618
  H      568.587    -538.226     961.020
  H      573.272    -531.639     958.887
  H      574.831    -533.464     954.792
  H      573.721    -537.377     955.870
  H      573.458    -536.560     958.202
  H      574.565    -533.397     959.380
  H      571.619    -533.933     958.664
  H      571.108    -533.303     960.940
  H      573.359    -534.673     961.997
  H      572.270    -536.841     961.412
  H      571.119    -535.683     962.150
  P      572.294    -531.688     962.612
  C      570.794    -529.889     961.420
  O      570.875    -531.117     962.159
  O      573.230    -530.376     962.758
  O      572.301    -532.589     963.808
  H      573.488    -530.015     961.893
  H      569.769    -529.668     961.207
  H      571.336    -529.988     960.503
  H      571.217    -529.095     962.000

 6  7  8  9  10  11  12  13  14  15  16  27  31  32  33  34  35 0
 6-311+G(2d,p)
 ****
 36  37 0
 6-311+G(2d,p)
 ****
 1  2  3  4  5  17  18  19  20  21  22  23  24  25 0
 3-21G
 ****
 26  28  29  30  38  39  40  41  42  43  44  45 0
 3-21G
 ****


