%nproc=1
%NoSave
%Mem=1900MB
#P OB98/GEN NMR

erre ene a

0 1
  C      233.220     398.131     924.960
  O      232.256     397.068     925.029
  P      232.767     395.568     924.747
  C      232.022     394.864     927.125
  O      231.965     394.566     925.724
  C      230.623     394.760     927.745
  O      229.821     395.918     927.340
  C      229.800     393.521     927.303
  O      229.934     392.320     928.059
  C      228.377     394.033     927.531
  O      228.012     393.860     928.916
  C      228.452     395.521     927.207
  N      224.619     397.544     924.481
  C      224.797     397.385     925.802
  N      225.845     396.841     926.449
  C      226.789     396.439     925.582
  C      226.752     396.534     924.204
  C      225.596     397.121     923.641
  N      225.408     397.267     922.289
  N      227.898     396.011     923.633
  C      228.605     395.582     924.660
  N      227.981     395.832     925.871
  O      234.250     395.380     924.698
  O      232.096     395.244     923.317
  H      227.070     394.109     928.986
  H      232.730     394.706     922.800
  H      223.985     397.741     926.433
  H      229.573     395.093     924.586
  H      227.861     396.131     927.893
  H      227.653     393.460     926.937
  H      229.959     393.320     926.242
  H      230.716     394.764     928.849
  H      232.413     395.872     927.270
  H      224.541     397.659     921.959
  H      226.105     396.907     921.642
  H      232.730     394.185     927.576
  P      229.352     390.927     927.508
  C      231.551     389.564     927.940
  O      230.205     389.788     928.268
  O      229.315     390.798     926.018
  O      227.930     390.849     928.224
  H      227.963     390.734     929.181
  H      232.006     388.916     928.686
  H      232.110     390.509     927.909
  H      231.617     389.071     926.951
  H      232.738     399.063     925.169
  H      233.647     398.162     923.980
  H      233.992     397.959     925.681

 3  4  5  6  7  8  9  10  11  12  22  25  29  30  31  32 0
 6-311+G(2d,p)
 ****
 33  36  37 0
 6-311+G(2d,p)
 ****
 1  2  13  14  15  16  17  18  19  20  21  23  24  26 0
 3-21G
 ****
 27  28  34  35  38  39  40  41  42  43  44  45  46  47  48 0
 3-21G
 ****


