%nproc=1
%NoSave
%Mem=1900MB
#P OB98/GEN NMR

erre ene a

0 1
  C      153.079     -24.043    -181.649
  O      152.376     -24.200    -182.860
  H      152.587     -24.647    -180.882
  H      153.059     -22.999    -181.327
  H      154.112     -24.384    -181.754
  P      152.856     -23.386    -184.159
  C      155.017     -24.591    -184.839
  O      153.622     -24.466    -185.076
  C      155.735     -25.157    -186.064
  O      157.171     -24.994    -185.906
  C      155.464     -26.650    -186.304
  O      155.151     -26.871    -187.681
  C      156.792     -27.312    -185.971
  O      156.966     -28.569    -186.617
  C      157.774     -26.209    -186.381
  N      159.103     -26.426    -185.826
  C      159.755     -27.598    -186.223
  O      159.207     -28.377    -187.004
  N      160.982     -27.886    -185.687
  C      161.494     -27.099    -184.794
  N      162.700     -27.457    -184.280
  C      160.829     -25.864    -184.326
  C      159.649     -25.589    -184.881
  O      153.628     -22.145    -183.866
  O      151.515     -23.111    -184.988
  H      156.335     -29.212    -186.224
  H      151.662     -22.341    -185.585
  H      161.296     -25.244    -183.575
  H      159.085     -24.707    -184.599
  H      157.857     -26.145    -187.474
  H      156.851     -27.479    -184.887
  H      154.656     -27.044    -185.689
  H      155.453     -24.558    -186.939
  H      163.118     -28.314    -184.625
  H      155.168     -25.243    -183.971
  H      163.185     -26.937    -183.564
  H      155.420     -23.598    -184.617
  P      153.779     -27.648    -187.980
  C      152.070     -25.696    -187.938
  O      152.788     -26.632    -188.729
  O      153.131     -27.825    -186.528
  O      153.977     -28.963    -188.657
  H      153.160     -28.764    -186.265
  H      151.455     -25.091    -188.571
  H      152.760     -25.072    -187.409
  H      151.454     -26.220    -187.237

 6  7  8  9  10  11  12  13  14  15  16  26  30  31  32  33  35 0
 6-311+G(2d,p)
 ****
 37  38 0
 6-311+G(2d,p)
 ****
 1  2  3  4  5  17  18  19  20  21  22  23  24  25 0
 3-21G
 ****
 27  28  29  34  36  39  40  41  42  43  44  45  46 0
 3-21G
 ****


