%nproc=1
%NoSave
%Mem=1900MB
#P OB98/GEN NMR

erre ene a

0 1
  C       95.230     151.947      36.277
  O       94.487     152.744      37.187
  P       92.926     152.960      36.886
  C       92.232     150.960      38.371
  O       92.224     151.528      37.069
  C       90.969     151.337      39.137
  O       89.819     150.756      38.462
  C       90.943     150.847      40.594
  O       90.439     151.893      41.435
  C       89.910     149.733      40.576
  O       89.315     149.537      41.853
  C       88.956     150.257      39.502
  N       84.299     149.577      37.673
  C       85.008     150.745      37.869
  N       84.358     151.897      37.590
  N       86.240     150.784      38.303
  C       86.774     149.556      38.511
  C       86.177     148.328      38.345
  C       84.793     148.304      37.922
  O       84.082     147.306      37.816
  N       87.044     147.307      38.641
  C       88.162     147.914      38.990
  N       88.032     149.280      38.973
  O       92.898     153.200      35.304
  O       92.288     154.092      37.615
  H       88.831     150.356      42.073
  H       92.463     154.052      35.106
  H       83.346     149.606      37.353
  H       89.072     147.411      39.290
  H       88.367     151.098      39.891
  H       90.393     148.800      40.267
  H       83.423     151.938      37.219
  H       91.913     150.505      40.970
  H       84.870     152.764      37.706
  H       90.847     152.426      39.094
  H       93.106     151.328      38.918
  H       92.306     149.871      38.282
  P       90.906     151.847      42.972
  C       92.847     153.581      42.871
  O       92.462     152.223      42.965
  O       90.892     150.285      43.315
  O       90.042     152.645      43.891
  H       90.777     150.148      44.274
  H       91.995     154.259      42.976
  H       93.316     153.752      41.900
  H       93.571     153.800      43.660
  H       96.248     151.890      36.601
  H       95.190     152.387      35.303
  H       94.812     150.963      36.241

 3  4  5  6  7  8  9  10  11  12  23  26  30  31  33  0
 6-311+G(2d,p)
 ****
 35  36  37  38 0
 6-311+G(2d,p)
 ****
 1  2  13  14  15  16  17  18  19  20  21  22  24  25  27  28  29 0
 3-21G
 ****
 32  34  39  40  41  42  43  44  45  46  47  48  49 0
 3-21G
 ****


