%nproc=1
%NoSave
%Mem=1900MB
#P OB98/GEN NMR

erre ene a

0 1
  C       32.708      21.732      61.775
  O       32.597      20.494      61.102
  P       31.691      19.304      61.678
  C       33.840      18.210      62.571
  O       32.532      18.661      62.886
  C       34.523      17.587      63.789
  O       34.567      18.558      64.871
  C       33.840      16.324      64.328
  O       34.884      15.485      64.829
  C       33.001      16.867      65.468
  O       32.615      15.860      66.394
  C       33.933      17.954      66.019
  N       33.216      18.930      66.831
  C       32.679      18.473      68.036
  O       32.753      17.279      68.335
  N       32.023      19.362      68.850
  C       31.829      20.576      68.442
  N       31.177      21.414      69.292
  C       32.269      21.066      67.122
  C       32.961      20.204      66.382
  O       31.205      18.327      60.661
  O       30.512      20.065      62.445
  H       31.865      16.203      66.928
  H       29.849      20.413      61.799
  H       32.036      22.071      66.804
  H       33.326      20.472      65.401
  H       34.726      17.507      66.634
  H       32.086      17.321      65.068
  H       33.243      15.795      63.581
  H       35.561      17.362      63.515
  H       30.906      21.041      70.193
  H       34.426      19.073      62.244
  H       31.049      22.398      69.108
  H       33.801      17.499      61.740
  P       34.895      13.907      64.545
  C       33.895      13.180      66.785
  O       33.692      13.272      65.387
  O       36.217      13.240      64.736
  O       34.389      13.774      63.029
  H       34.603      12.885      62.693
  H       32.933      13.005      67.274
  H       34.332      14.101      67.180
  H       34.562      12.341      67.003
  H       33.357      22.381      61.224
  H       33.111      21.571      62.753
  H       31.740      22.181      61.857

 3  4  5  6  7  8  9  10  11  12  13  23  27  28  29  30  32 0
 6-311+G(2d,p)
 ****
 34  35 0
 6-311+G(2d,p)
 ****
 1  2  14  15  16  17  18  19  20  21  22  24  25  26 0
 3-21G
 ****
 31  33  36  37  38  39  40  41  42  43  44  45  46 0
 3-21G
 ****


