%nproc=1
%NoSave
%Mem=1900MB
#P OB98/GEN NMR

erre ene a

0 1
  C       35.757     -20.740    -116.588
  O       35.670     -21.958    -115.878
  H       34.866     -20.145    -116.372
  H       35.802     -20.924    -117.665
  H       36.638     -20.177    -116.269
  P       36.805     -23.063    -116.115
  C       37.276     -23.118    -113.574
  O       37.816     -22.956    -114.876
  C       38.393     -23.210    -112.527
  O       39.224     -24.367    -112.828
  C       39.316     -21.982    -112.495
  O       39.797     -21.844    -111.152
  C       40.432     -22.423    -113.421
  O       41.562     -21.596    -113.299
  C       40.575     -23.889    -113.003
  N       41.313     -24.679    -113.976
  C       42.691     -24.457    -114.035
  O       43.217     -23.622    -113.299
  N       43.434     -25.162    -114.946
  C       42.844     -25.968    -115.772
  N       43.635     -26.626    -116.660
  C       41.382     -26.187    -115.782
  C       40.685     -25.521    -114.863
  O       37.457     -23.046    -117.457
  O       36.053     -24.452    -115.850
  H       42.323     -21.965    -113.802
  H       35.877     -24.897    -116.699
  H       40.937     -26.856    -116.504
  H       39.606     -25.616    -114.793
  H       41.081     -23.971    -112.032
  H       40.111     -22.360    -114.466
  H       38.817     -21.064    -112.815
  H       37.940     -23.391    -111.545
  H       44.630     -26.437    -116.625
  H       36.687     -24.040    -113.573
  H       43.287     -27.260    -117.363
  H       36.615     -22.279    -113.332
  P       40.437     -20.484    -110.592
  C       38.611     -20.254    -108.785
  O       39.299     -19.625    -109.862
  O       41.221     -19.718    -111.609
  O       41.389     -20.940    -109.386
  H       42.139     -20.320    -109.321
  H       37.882     -19.580    -108.386
  H       39.311     -20.517    -108.020
  H       38.123     -21.137    -109.141

 6  7  8  9  10  11  12  13  14  15  16  26  30  31  32  33  35 0
 6-311+G(2d,p)
 ****
 37  38 0
 6-311+G(2d,p)
 ****
 1  2  3  4  5  17  18  19  20  21  22  23  24  25 0
 3-21G
 ****
 27  28  29  34  36  39  40  41  42  43  44  45  46 0
 3-21G
 ****


