%nproc=1
%NoSave
%Mem=1900MB
#P OB98/GEN NMR

erre ene a

0 1
  C     -409.624     615.965      48.979
  O     -409.820     614.804      48.170
  P     -410.250     613.429      48.881
  C     -412.612     613.699      47.891
  O     -411.508     612.829      48.086
  C     -413.847     612.913      47.434
  O     -413.696     612.423      46.086
  C     -414.128     611.690      48.284
  O     -414.675     612.058      49.537
  C     -415.062     610.899      47.377
  O     -416.410     611.382      47.481
  C     -414.494     611.215      45.973
  N     -413.725     610.125      45.403
  C     -414.346     609.409      44.373
  O     -415.493     609.689      44.027
  N     -413.661     608.380      43.771
  C     -412.456     608.096      44.173
  N     -411.815     607.073      43.537
  C     -411.768     608.819      45.259
  C     -412.453     609.801      45.828
  O     -410.409     613.492      50.364
  O     -409.065     612.426      48.468
  H     -416.378     612.322      47.200
  H     -408.953     611.768      49.177
  H     -410.762     608.544      45.551
  H     -412.029     610.382      46.633
  H     -415.309     611.451      45.282
  H     -415.074     609.830      47.632
  H     -413.194     611.127      48.437
  H     -414.711     613.590      47.460
  H     -412.317     606.581      42.803
  H     -412.355     614.451      47.136
  H     -410.862     606.808      43.743
  H     -412.814     614.237      48.821
  P     -413.938     611.522      50.859
  C     -412.736     613.805      51.083
  O     -413.487     612.792      51.720
  O     -412.550     610.954      50.288
  O     -414.685     610.462      51.615
  H     -412.267     610.178      50.810
  H     -412.792     614.718      51.698
  H     -413.139     614.031      50.094
  H     -411.695     613.495      50.997
  H     -409.343     616.789      48.358
  H     -408.849     615.776      49.692
  H     -410.533     616.199      49.493

 3  4  5  6  7  8  9  10  11  12  13  23  27  28  29  30  32 0
 6-311+G(2d,p)
 ****
 34  35 0
 6-311+G(2d,p)
 ****
 1  2  14  15  16  17  18  19  20  21  22  24  25  26 0
 3-21G
 ****
 31  33  36  37  38  39  40  41  42  43  44  45  46 0
 3-21G
 ****


