%nproc=1
%NoSave
%Mem=1900MB
#P OB98/GEN NMR

erre ene a

0 1
  C      278.465    -281.613    -134.808
  O      279.754    -282.236    -134.726
  P      281.124    -281.438    -134.973
  C      281.326    -280.131    -132.757
  O      281.849    -281.181    -133.566
  C      282.353    -279.013    -132.552
  O      281.711    -277.812    -132.078
  C      283.438    -279.321    -131.528
  O      284.405    -280.210    -132.057
  C      283.957    -277.920    -131.220
  O      284.904    -277.490    -132.214
  C      282.667    -277.077    -131.292
  N      282.140    -276.750    -129.975
  C      282.893    -275.864    -129.200
  O      283.975    -275.442    -129.612
  N      282.412    -275.494    -127.966
  C      281.317    -276.024    -127.518
  N      280.889    -275.615    -126.292
  C      280.542    -277.030    -128.262
  C      281.004    -277.342    -129.472
  O      280.968    -280.210    -135.810
  O      282.092    -282.488    -135.702
  H      284.604    -277.869    -133.062
  H      282.695    -282.006    -136.296
  H      279.650    -277.469    -127.840
  H      280.488    -278.067    -130.091
  H      282.851    -276.143    -131.838
  H      284.461    -277.861    -130.250
  H      282.983    -279.746    -130.624
  H      282.802    -278.788    -133.530
  H      281.441    -274.920    -125.811
  H      281.051    -280.554    -131.783
  H      280.049    -275.963    -125.852
  H      280.425    -279.734    -133.235
  P      284.624    -281.644    -131.379
  C      283.180    -283.568    -132.270
  O      284.321    -282.758    -132.489
  O      283.942    -281.849    -130.068
  O      286.217    -281.743    -131.214
  H      286.420    -282.276    -130.422
  H      282.854    -283.982    -133.230
  H      282.360    -282.990    -131.832
  H      283.443    -284.393    -131.601
  H      277.705    -282.338    -134.606
  H      278.324    -281.213    -135.790
  H      278.404    -280.823    -134.089

 3  4  5  6  7  8  9  10  11  12  13  23  27  28  29  30  32 0
 6-311+G(2d,p)
 ****
 34  35 0
 6-311+G(2d,p)
 ****
 1  2  14  15  16  17  18  19  20  21  22  24  25  26 0
 3-21G
 ****
 31  33  36  37  38  39  40  41  42  43  44  45  46 0
 3-21G
 ****


