%nproc=1
%NoSave
%Mem=1900MB
#P OB98/GEN NMR

erre ene a

0 1
  C      406.882     -49.643    -479.014
  O      407.303     -48.549    -479.826
  P      406.182     -47.586    -480.452
  C      403.992     -46.502    -479.617
  O      405.268     -47.023    -479.259
  C      403.563     -45.398    -478.637
  O      403.594     -45.928    -477.285
  C      404.476     -44.163    -478.620
  O      404.197     -43.098    -479.523
  C      404.210     -43.618    -477.214
  O      403.014     -42.816    -477.222
  C      403.982     -44.877    -476.375
  N      406.836     -43.898    -472.240
  C      405.711     -43.318    -472.722
  N      405.013     -43.643    -473.832
  C      405.575     -44.684    -474.464
  C      406.721     -45.373    -474.091
  C      407.363     -44.939    -472.923
  N      408.515     -45.516    -472.439
  N      406.997     -46.377    -474.996
  C      406.049     -46.283    -475.905
  N      405.159     -45.283    -475.624
  O      405.438     -48.127    -481.627
  O      407.034     -46.292    -480.865
  H      403.150     -42.133    -477.908
  H      406.682     -45.934    -481.701
  H      405.317     -42.492    -472.139
  H      405.968     -46.909    -476.786
  H      403.171     -44.749    -475.656
  H      405.018     -42.974    -476.860
  H      405.531     -44.457    -478.710
  H      402.533     -45.093    -478.865
  H      403.257     -47.308    -479.606
  H      408.939     -45.120    -471.621
  H      408.960     -46.258    -472.970
  H      404.062     -46.149    -480.646
  P      404.361     -43.283    -481.105
  C      402.971     -44.566    -482.914
  O      403.174     -44.268    -481.552
  O      405.721     -43.707    -481.555
  O      403.885     -41.869    -481.676
  H      402.936     -41.688    -481.558
  H      402.270     -45.404    -482.989
  H      403.913     -44.850    -483.397
  H      402.537     -43.701    -483.424
  H      407.739     -50.186    -478.675
  H      406.253     -50.292    -479.587
  H      406.338     -49.272    -478.171

 3  4  5  6  7  8  9  10  11  12  22  25  29  30  31  32 0
 6-311+G(2d,p)
 ****
 33  36  37 0
 6-311+G(2d,p)
 ****
 1  2  13  14  15  16  17  18  19  20  21  23  24  26 0
 3-21G
 ****
 27  28  34  35  38  39  40  41  42  43  44  45  46  47  48 0
 3-21G
 ****


