%nproc=1
%NoSave
%Mem=1900MB
#P OB98/GEN NMR

erre ene a

0 1
  C      -26.976     -39.498    -126.394
  O      -26.000     -38.681    -125.772
  P      -24.488     -39.230    -125.764
  C      -23.756     -38.345    -128.108
  O      -24.085     -39.460    -127.296
  C      -22.451     -38.622    -128.857
  O      -21.340     -38.637    -127.939
  C      -22.419     -39.959    -129.585
  O      -23.084     -39.862    -130.831
  C      -20.920     -40.205    -129.705
  O      -20.366     -39.470    -130.812
  C      -20.399     -39.660    -128.367
  N      -18.134     -44.000    -127.111
  C      -18.175     -43.337    -128.323
  N      -17.471     -43.892    -129.333
  N      -18.841     -42.232    -128.524
  C      -19.507     -41.801    -127.428
  C      -19.557     -42.375    -126.180
  C      -18.774     -43.569    -125.957
  O      -18.626     -44.139    -124.879
  N      -20.358     -41.660    -125.328
  C      -20.765     -40.638    -126.054
  N      -20.261     -40.664    -127.328
  O      -24.645     -40.707    -125.174
  O      -23.514     -38.401    -124.988
  H      -20.492     -39.980    -131.632
  H      -24.428     -40.725    -124.222
  H      -17.590     -44.839    -127.010
  H      -21.405     -39.845    -125.698
  H      -19.422     -39.175    -128.472
  H      -20.687     -41.258    -129.882
  H      -16.955     -44.754    -129.258
  H      -22.872     -40.743    -128.965
  H      -17.493     -43.423    -130.231
  H      -22.289     -37.797    -129.563
  H      -23.627     -37.464    -127.474
  H      -24.574     -38.159    -128.812
  P      -23.593     -41.225    -131.507
  C      -25.993     -41.351    -130.526
  O      -24.677     -41.868    -130.520
  O      -22.327     -42.196    -131.375
  O      -24.025     -41.086    -132.929
  H      -22.272     -42.771    -132.161
  H      -26.685     -42.152    -130.255
  H      -26.270     -40.957    -131.508
  H      -26.067     -40.551    -129.785
  H      -27.932     -39.022    -126.331
  H      -27.016     -40.446    -125.899
  H      -26.717     -39.644    -127.422

 3  4  5  6  7  8  9  10  11  12  23  26  30  31 0
 6-311+G(2d,p)
 ****
 33  35  36  37  38 0
 6-311+G(2d,p)
 ****
 1  2  13  14  15  16  17  18  19  20  21  22  24  25 0
 3-21G
 ****
 27  28  29  32  34  39  40  41  42  43  44  45  46  47  48  49 0
 3-21G
 ****


