%nproc=1
%NoSave
%Mem=1900MB
#P OB98/GEN NMR

erre ene a

0 1
  C     -472.262     577.099     632.518
  O     -472.717     575.803     632.844
  H     -472.012     577.116     631.448
  H     -471.361     577.344     633.084
  H     -473.043     577.840     632.707
  P     -473.114     575.475     634.364
  C     -473.584     577.696     635.566
  O     -474.140     576.635     634.792
  C     -474.676     578.577     636.169
  O     -475.548     579.065     635.107
  C     -475.567     577.836     637.194
  O     -475.722     578.650     638.358
  C     -476.904     577.710     636.478
  O     -478.006     577.572     637.372
  C     -476.896     578.979     635.615
  N     -477.889     578.926     634.550
  C     -479.211     579.205     634.918
  O     -479.480     579.473     636.086
  N     -480.195     579.106     633.974
  C     -479.892     578.725     632.773
  N     -480.927     578.614     631.887
  C     -478.515     578.393     632.342
  C     -477.574     578.519     633.272
  O     -471.957     575.279     635.286
  O     -474.061     574.178     634.271
  H     -477.828     578.104     638.172
  H     -474.057     573.720     635.139
  H     -478.325     578.067     631.324
  H     -476.535     578.300     633.052
  H     -477.093     579.869     636.230
  H     -476.884     576.824     635.826
  H     -475.170     576.860     637.482
  H     -474.210     579.458     636.615
  H     -481.860     578.846     632.226
  H     -472.923     578.288     634.919
  H     -480.822     578.305     630.932
  H     -472.987     577.264     636.377
  P     -474.802     578.262     639.611
  C     -472.217     578.162     639.914
  O     -473.315     578.841     639.337
  O     -474.631     576.677     639.477
  O     -475.393     578.642     640.937
  H     -475.114     576.225     640.193
  H     -471.309     578.660     639.645
  H     -472.192     577.155     639.554
  H     -472.320     578.158     640.979

 6  7  8  9  10  11  12  13  14  15  16  26  30  31  32  33  35 0
 6-311+G(2d,p)
 ****
 37  38 0
 6-311+G(2d,p)
 ****
 1  2  3  4  5  17  18  19  20  21  22  23  24  25 0
 3-21G
 ****
 27  28  29  34  36  39  40  41  42  43  44  45  46 0
 3-21G
 ****


