%nproc=1
%NoSave
%Mem=1900MB
#P OB98/GEN NMR

erre ene a

0 1
  C     -206.033     358.845      22.774
  O     -206.426     357.752      21.964
  H     -206.180     359.769      22.204
  H     -204.978     358.766      23.053
  H     -206.654     358.887      23.671
  P     -206.048     356.268      22.463
  C     -207.881     355.319      20.914
  O     -206.496     355.293      21.269
  C     -208.242     354.144      20.004
  O     -207.803     354.392      18.654
  C     -207.588     352.826      20.399
  O     -208.017     352.291      21.624
  C     -207.747     352.008      19.124
  O     -209.035     351.406      19.031
  C     -207.591     353.100      18.035
  N     -206.302     353.036      17.360
  C     -206.184     352.081      16.354
  O     -207.096     351.310      16.043
  N     -204.972     352.015      15.731
  C     -203.867     352.764      16.045
  O     -202.799     352.636      15.452
  C     -204.038     353.721      17.138
  C     -205.228     353.821      17.742
  O     -206.591     355.883      23.807
  O     -204.448     356.232      22.378
  H     -209.039     350.642      19.643
  H     -204.085     355.465      22.887
  H     -204.873     351.346      14.986
  H     -203.180     354.326      17.423
  H     -205.376     354.525      18.558
  H     -208.377     352.991      17.275
  H     -207.007     351.210      19.051
  H     -206.508     353.010      20.511
  H     -209.336     354.047      19.988
  H     -208.071     356.258      20.389
  H     -208.492     355.295      21.826
  P     -207.059     351.525      22.648
  C     -208.250     352.712      24.653
  O     -207.768     351.500      24.088
  O     -205.607     351.869      22.584
  O     -207.221     349.991      22.162
  H     -206.359     349.556      22.307
  H     -208.689     352.511      25.608
  H     -208.986     353.140      24.005
  H     -207.438     353.398      24.772

 6  7  8  9  10  11  12  13  14  15  16  26  31  32  33  34  35 0
 6-311+G(2d,p)
 ****
 36  37 0
 6-311+G(2d,p)
 ****
 1  2  3  4  5  17  18  19  20  21  22  23  24  25 0
 3-21G
 ****
 27  28  29  30  38  39  40  41  42  43  44  45 0
 3-21G
 ****


