%nproc=1
%NoSave
%Mem=1900MB
#P OB98/GEN NMR

erre ene a

0 1
  C     -150.666     165.987     -15.598
  O     -149.450     166.118     -16.310
  H     -150.467     165.913     -14.524
  H     -151.283     166.872     -15.781
  H     -151.210     165.099     -15.937
  P     -148.383     164.930     -16.146
  C     -149.748     163.603     -17.921
  O     -149.149     163.603     -16.632
  C     -149.183     162.443     -18.737
  O     -149.316     161.204     -18.002
  C     -149.904     162.216     -20.063
  O     -149.446     163.086     -21.085
  C     -149.518     160.776     -20.352
  O     -148.161     160.723     -20.835
  C     -149.607     160.144     -18.953
  N     -153.049     156.580     -20.259
  C     -151.807     156.841     -20.719
  N     -150.944     157.798     -20.303
  C     -151.477     158.514     -19.302
  C     -152.730     158.355     -18.723
  C     -153.540     157.336     -19.249
  N     -154.819     157.080     -18.806
  N     -152.929     159.297     -17.728
  C     -151.811     159.996     -17.698
  N     -150.914     159.583     -18.650
  O     -148.282     164.725     -14.561
  O     -147.055     165.150     -16.793
  H     -147.594     161.103     -20.136
  H     -147.499     164.184     -14.337
  H     -151.456     156.208     -21.532
  H     -151.606     160.814     -17.016
  H     -148.868     159.345     -18.799
  H     -150.150     160.312     -21.114
  H     -150.992     162.276     -19.946
  H     -148.110     162.623     -18.898
  H     -149.522     164.551     -18.421
  H     -155.375     156.431     -19.342
  H     -155.246     157.730     -18.155
  H     -150.834     163.501     -17.819
  P     -150.469     163.428     -22.277
  C     -151.478     165.535     -21.125
  O     -151.704     164.211     -21.606
  O     -151.090     162.000     -22.639
  O     -149.845     164.092     -23.460
  H     -151.310     161.944     -23.585
  H     -152.384     165.923     -20.709
  H     -151.161     166.159     -21.934
  H     -150.719     165.516     -20.371

 6  7  8  9  10  11  12  13  14  15  25  28  32  33  34  35 0
 6-311+G(2d,p)
 ****
 36  39  40 0
 6-311+G(2d,p)
 ****
 1  2  3  4  5  16  17  18  19  20  21  22  23  24 0
 3-21G
 ****
 26  27  29  30  31  37  38  41  42  43  44  45  46  47 0
 3-21G
 ****
 48 0
 3-21G
 ****


