%nproc=1
%NoSave
%Mem=1900MB
#P OB98/GEN NMR

erre ene a

0 1
  C      387.181     -73.143     506.133
  O      387.039     -74.126     507.144
  H      388.234     -72.858     506.070
  H      386.591     -72.252     506.373
  H      386.869     -73.548     505.165
  P      385.568     -74.657     507.491
  C      386.057     -77.170     507.080
  O      385.749     -76.154     508.035
  C      385.522     -78.523     507.546
  O      386.302     -79.018     508.655
  C      384.081     -78.490     508.042
  O      383.178     -78.397     506.950
  C      384.021     -79.791     508.827
  O      383.872     -80.918     507.950
  C      385.421     -79.796     509.500
  N      385.409     -79.280     510.862
  C      385.601     -80.221     511.883
  O      385.738     -81.411     511.605
  N      385.603     -79.777     513.191
  C      385.474     -78.515     513.449
  N      385.489     -78.149     514.755
  C      385.313     -77.488     512.398
  C      385.280     -77.929     511.145
  O      384.539     -74.511     506.413
  O      385.163     -73.836     508.807
  H      382.918     -80.976     507.738
  H      384.660     -73.039     508.571
  H      385.223     -76.437     512.667
  H      385.171     -77.240     510.314
  H      385.826     -80.815     509.526
  H      383.181     -79.811     509.527
  H      383.930     -77.656     508.734
  H      385.640     -79.234     506.715
  H      385.626     -78.884     515.439
  H      387.149     -77.209     506.991
  H      385.564     -77.188     515.075
  H      385.639     -76.915     506.102
  P      382.085     -77.233     506.859
  C      382.588     -77.178     504.334
  O      381.575     -77.236     505.333
  O      382.516     -75.905     507.375
  O      380.818     -77.842     507.635
  H      380.962     -77.790     508.621
  H      382.134     -77.186     503.365
  H      383.234     -78.025     504.432
  H      383.157     -76.280     504.454

 6  7  8  9  10  11  12  13  14  15  16  26  30  31  32  33  35 0
 6-311+G(2d,p)
 ****
 37  38 0
 6-311+G(2d,p)
 ****
 1  2  3  4  5  17  18  19  20  21  22  23  24  25 0
 3-21G
 ****
 27  28  29  34  36  39  40  41  42  43  44  45  46 0
 3-21G
 ****


