%nproc=1
%NoSave
%Mem=1900MB
#P OB98/GEN NMR

erre ene a

0 1
  C     -209.678      -8.261     -18.228
  O     -209.312      -8.226     -16.864
  H     -209.802      -9.305     -18.528
  H     -208.896      -7.813     -18.845
  H     -210.625      -7.739     -18.386
  P     -209.065      -6.798     -16.175
  C     -206.871      -7.591     -15.045
  O     -208.205      -7.141     -14.859
  C     -206.246      -7.954     -13.702
  O     -205.990      -6.777     -12.908
  C     -207.109      -8.838     -12.810
  O     -207.184     -10.186     -13.238
  C     -206.364      -8.690     -11.495
  O     -205.164      -9.481     -11.528
  C     -206.040      -7.177     -11.509
  N     -207.030      -6.383     -10.782
  C     -206.593      -5.755      -9.612
  O     -205.432      -5.883      -9.225
  N     -207.492      -5.016      -8.881
  C     -208.726      -4.933      -9.272
  N     -209.575      -4.194      -8.506
  C     -209.234      -5.595     -10.488
  C     -208.346      -6.293     -11.189
  O     -210.282      -5.962     -15.946
  O     -207.967      -6.090     -17.100
  H     -204.811      -9.498     -10.619
  H     -207.786      -5.195     -16.722
  H     -210.279      -5.520     -10.755
  H     -208.642      -6.814     -12.093
  H     -205.049      -6.986     -11.080
  H     -206.944      -9.016     -10.631
  H     -208.113      -8.410     -12.689
  H     -205.273      -8.421     -13.909
  H     -209.199      -3.752      -7.678
  H     -206.307      -6.795     -15.540
  H     -210.568      -4.137      -8.693
  H     -206.862      -8.481     -15.682
  P     -208.545     -10.979     -12.912
  C     -207.201     -13.217     -12.988
  O     -208.327     -12.477     -13.433
  O     -209.586     -10.351     -13.949
  O     -209.013     -10.882     -11.495
  H     -210.133      -9.668     -13.518
  H     -207.215     -14.190     -13.433
  H     -207.235     -13.312     -11.923
  H     -206.304     -12.707     -13.272

 6  7  8  9  10  11  12  13  14  15  16  26  30  31  32  33  35 0
 6-311+G(2d,p)
 ****
 37  38 0
 6-311+G(2d,p)
 ****
 1  2  3  4  5  17  18  19  20  21  22  23  24  25 0
 3-21G
 ****
 27  28  29  34  36  39  40  41  42  43  44  45  46 0
 3-21G
 ****


