%nproc=1
%NoSave
%Mem=1900MB
#P OB98/GEN NMR

erre ene a

0 1
  C     -143.546    -160.232     362.568
  O     -144.217    -159.509     363.592
  P     -144.742    -160.319     364.873
  C     -143.922    -158.585     366.616
  O     -143.798    -159.904     366.105
  C     -143.519    -158.523     368.090
  O     -144.448    -159.329     368.866
  C     -142.110    -159.045     368.388
  O     -141.597    -158.281     369.485
  C     -142.362    -160.469     368.849
  O     -141.276    -160.986     369.617
  C     -143.665    -160.280     369.621
  N     -144.013    -164.635     372.275
  C     -143.183    -163.578     372.385
  N     -143.150    -162.453     371.645
  C     -144.104    -162.485     370.696
  C     -144.998    -163.508     370.437
  C     -144.935    -164.630     371.282
  N     -145.787    -165.704     371.175
  N     -145.805    -163.186     369.363
  C     -145.404    -161.993     368.983
  N     -144.395    -161.519     369.774
  O     -144.294    -161.822     364.547
  O     -146.207    -160.230     365.124
  H     -140.515    -161.112     369.021
  H     -145.080    -162.374     364.379
  H     -142.447    -163.641     373.186
  H     -145.804    -161.435     368.147
  H     -143.496    -159.860     370.620
  H     -142.502    -161.122     367.979
  H     -141.424    -158.992     367.536
  H     -143.625    -157.488     368.433
  H     -144.965    -158.268     366.526
  H     -145.769    -166.402     371.901
  H     -146.596    -165.627     370.566
  H     -143.299    -157.906     366.027
  P     -140.004    -158.165     369.608
  C     -140.009    -155.767     368.618
  O     -139.532    -157.099     368.514
  O     -139.486    -159.564     369.025
  O     -139.514    -157.936     371.000
  H     -138.628    -159.795     369.426
  H     -139.235    -155.089     368.257
  H     -140.261    -155.504     369.649
  H     -140.901    -155.659     367.992
  H     -143.258    -159.560     361.787
  H     -144.201    -160.980     362.172
  H     -142.674    -160.700     362.975

 3  4  5  6  7  8  9  10  11  12  22  25  29  30  31  32 0
 6-311+G(2d,p)
 ****
 33  36  37 0
 6-311+G(2d,p)
 ****
 1  2  13  14  15  16  17  18  19  20  21  23  24  26 0
 3-21G
 ****
 27  28  34  35  38  39  40  41  42  43  44  45  46  47  48 0
 3-21G
 ****


