%nproc=1
%NoSave
%Mem=1900MB
#P OB98/GEN NMR

erre ene a

0 1
  C       32.379     444.535     416.245
  O       32.645     443.196     415.887
  H       33.168     445.171     415.834
  H       32.370     444.644     417.333
  H       31.418     444.857     415.829
  P       31.615     442.089     416.424
  C       31.110     441.151     414.065
  O       31.690     440.909     415.339
  C       32.004     440.611     412.954
  O       33.251     441.333     412.916
  C       32.372     439.138     413.100
  O       31.334     438.313     412.590
  C       33.623     439.059     412.240
  O       33.253     438.946     410.852
  C       34.297     440.415     412.497
  N       39.355     440.053     413.337
  C       38.611     439.837     412.230
  N       37.269     439.901     412.092
  C       36.684     440.232     413.255
  C       37.315     440.477     414.468
  C       38.714     440.386     414.482
  N       39.472     440.597     415.620
  N       36.393     440.783     415.449
  C       35.231     440.781     414.821
  N       35.352     440.421     413.503
  O       30.250     442.585     416.765
  O       32.441     441.479     417.655
  H       34.056     438.690     410.366
  H       33.383     441.383     417.419
  H       39.170     439.577     411.331
  H       34.278     441.061     415.265
  H       34.736     440.827     411.581
  H       34.239     438.185     412.472
  H       32.631     438.881     414.139
  H       31.501     440.788     411.987
  H       30.951     442.229     413.920
  H       40.436     440.319     415.586
  H       38.984     440.714     416.494
  H       30.136     440.656     414.039
  P       31.067     436.850     413.184
  C       28.509     436.881     412.892
  O       29.737     436.335     412.431
  O       31.040     436.783     414.672
  O       32.211     435.938     412.540
  H       32.305     435.104     413.035
  H       27.701     436.470     412.324
  H       28.525     437.944     412.773
  H       28.377     436.639     413.926

 6  7  8  9  10  11  12  13  14  15  25  28  32  33  34  35 0
 6-311+G(2d,p)
 ****
 36  39  40 0
 6-311+G(2d,p)
 ****
 1  2  3  4  5  16  17  18  19  20  21  22  23  24 0
 3-21G
 ****
 26  27  29  30  31  37  38  41  42  43  44  45  46  47 0
 3-21G
 ****
 48 0
 3-21G
 ****


