%nproc=1
%NoSave
%Mem=1900MB
#P OB98/GEN NMR

erre ene a

0 1
  C      165.189    -229.501    -127.888
  O      164.734    -228.763    -126.770
  H      165.057    -230.569    -127.682
  H      166.252    -229.308    -128.072
  H      164.603    -229.238    -128.773
  P      164.879    -227.169    -126.859
  C      167.120    -226.714    -125.672
  O      166.462    -226.912    -126.916
  C      168.136    -225.570    -125.775
  O      169.186    -225.963    -126.697
  C      167.523    -224.264    -126.297
  O      168.125    -223.165    -125.607
  C      167.944    -224.229    -127.753
  O      167.999    -222.912    -128.289
  C      169.296    -224.951    -127.712
  N      171.879    -224.258    -132.057
  C      171.839    -223.556    -130.906
  N      171.136    -223.821    -129.788
  C      170.450    -224.971    -129.921
  C      170.388    -225.797    -131.029
  C      171.143    -225.400    -132.149
  N      171.170    -226.097    -133.334
  N      169.541    -226.868    -130.797
  C      169.111    -226.694    -129.553
  N      169.623    -225.553    -128.992
  O      164.146    -226.396    -125.810
  O      164.422    -226.880    -128.364
  H      168.295    -222.968    -129.222
  H      164.817    -227.523    -128.985
  H      172.453    -222.653    -130.884
  H      168.425    -227.353    -129.034
  H      170.118    -224.274    -127.451
  H      167.220    -224.804    -128.357
  H      166.442    -224.230    -126.184
  H      168.604    -225.426    -124.800
  H      167.639    -227.636    -125.365
  H      171.750    -225.749    -134.077
  H      170.646    -226.957    -133.410
  H      166.358    -226.479    -124.928
  P      167.201    -222.291    -124.620
  C      167.417    -220.005    -125.825
  O      166.550    -221.082    -125.462
  O      167.827    -221.905    -123.324
  O      165.943    -223.256    -124.392
  H      165.646    -223.165    -123.459
  H      166.865    -219.273    -126.377
  H      168.217    -220.379    -126.429
  H      167.818    -219.556    -124.940

 6  7  8  9  10  11  12  13  14  15  25  28  32  33  34  35 0
 6-311+G(2d,p)
 ****
 36  39  40 0
 6-311+G(2d,p)
 ****
 1  2  3  4  5  16  17  18  19  20  21  22  23  24 0
 3-21G
 ****
 26  27  29  30  31  37  38  41  42  43  44  45  46  47 0
 3-21G
 ****
 48 0
 3-21G
 ****


