%nproc=1
%NoSave
%Mem=1900MB
#P OB98/GEN NMR

erre ene a

0 1
  C      -68.413    -101.588    -198.223
  O      -68.724    -101.402    -196.852
  P      -68.990     -99.907    -196.333
  C      -66.918     -99.816    -194.768
  O      -67.577     -99.271    -195.904
  C      -65.581     -99.111    -194.524
  O      -64.788     -99.146    -195.743
  C      -65.725     -97.639    -194.120
  O      -64.668     -97.294    -193.211
  C      -65.477     -96.888    -195.413
  O      -65.042     -95.553    -195.167
  C      -64.424     -97.787    -196.065
  N      -63.869     -94.403    -199.783
  C      -63.618     -94.270    -198.431
  N      -63.249     -93.042    -198.006
  N      -63.711     -95.256    -197.575
  C      -64.095     -96.424    -198.147
  C      -64.358     -96.683    -199.472
  C      -64.264     -95.581    -200.405
  O      -64.501     -95.623    -201.611
  N      -64.686     -97.999    -199.676
  C      -64.664     -98.532    -198.465
  N      -64.346     -97.609    -197.501
  O      -69.738    -100.142    -194.936
  O      -69.819     -99.066    -197.248
  H      -65.014     -95.099    -196.033
  H      -70.691     -99.944    -195.034
  H      -63.794     -93.610    -200.402
  H      -64.894     -99.566    -198.233
  H      -63.426     -97.604    -195.649
  H      -66.393     -96.848    -196.008
  H      -63.223     -92.227    -198.600
  H      -66.691     -97.388    -193.666
  H      -63.102     -92.908    -197.011
  H      -65.025     -99.672    -193.763
  H      -66.739    -100.879    -194.936
  H      -67.562     -99.714    -193.888
  P      -64.982     -96.089    -192.193
  C      -63.972     -94.108    -193.551
  O      -65.133     -94.775    -193.102
  O      -63.585     -95.872    -191.442
  O      -66.107     -96.363    -191.249
  H      -63.737     -95.477    -190.559
  H      -63.935     -94.152    -194.645
  H      -63.055     -94.552    -193.150
  H      -64.020     -93.063    -193.237
  H      -68.263    -102.630    -198.417
  H      -67.520    -101.049    -198.463
  H      -69.221    -101.226    -198.824

 3  4  5  6  7  8  9  10  11  12  23  26  30  31 0
 6-311+G(2d,p)
 ****
 33  35  36  37  38 0
 6-311+G(2d,p)
 ****
 1  2  13  14  15  16  17  18  19  20  21  22  24  25 0
 3-21G
 ****
 27  28  29  32  34  39  40  41  42  43  44  45  46  47  48  49 0
 3-21G
 ****


