%nproc=1
%NoSave
%Mem=1900MB
#P OB98/GEN NMR

erre ene a

0 1
  C     -171.493    -171.669    -298.097
  O     -170.275    -172.098    -298.671
  H     -172.161    -171.339    -298.898
  H     -171.315    -170.829    -297.420
  H     -171.970    -172.491    -297.554
  P     -169.163    -172.665    -297.661
  C     -169.604    -175.152    -298.278
  O     -169.629    -174.150    -297.269
  C     -170.046    -176.489    -297.688
  O     -169.927    -177.521    -298.695
  C     -169.201    -176.964    -296.512
  O     -169.560    -176.313    -295.306
  C     -169.508    -178.456    -296.511
  O     -170.731    -178.743    -295.822
  C     -169.664    -178.763    -298.007
  N     -167.365    -183.246    -298.783
  C     -168.572    -182.928    -298.264
  N     -169.119    -181.702    -298.108
  C     -168.287    -180.753    -298.567
  C     -167.028    -180.925    -299.114
  C     -166.564    -182.246    -299.222
  N     -165.324    -182.569    -299.718
  N     -166.463    -179.704    -299.424
  C     -167.367    -178.811    -299.077
  N     -168.486    -179.399    -298.560
  O     -169.429    -171.820    -296.327
  O     -167.753    -172.542    -298.132
  H     -170.848    -179.712    -295.854
  H     -168.834    -171.046    -296.307
  H     -169.174    -183.767    -297.924
  H     -167.255    -177.736    -299.171
  H     -170.514    -179.429    -298.204
  H     -168.717    -179.024    -296.019
  H     -168.136    -176.821    -296.728
  H     -171.103    -176.412    -297.403
  H     -168.585    -175.250    -298.668
  H     -170.270    -174.852    -299.095
  H     -165.047    -183.536    -299.743
  H     -164.677    -181.824    -299.947
  P     -168.639    -176.535    -294.014
  C     -166.951    -174.599    -294.418
  O     -167.168    -176.000    -294.366
  O     -168.461    -178.125    -293.959
  O     -169.205    -175.994    -292.744
  H     -169.065    -178.513    -293.299
  H     -165.928    -174.405    -294.663
  H     -167.178    -174.167    -293.465
  H     -167.584    -174.167    -295.165

 6  7  8  9  10  11  12  13  14  15  25  28  32  33  34  35 0
 6-311+G(2d,p)
 ****
 36  37  40 0
 6-311+G(2d,p)
 ****
 1  2  3  4  5  16  17  18  19  20  21  22  23  24 0
 3-21G
 ****
 26  27  29  30  31  38  39 41  42  43  44  45  46  47  48 0
 3-21G
 ****


