%nproc=1
%NoSave
%Mem=1900MB
#P OB98/GEN NMR

erre ene a

0 1
  C      111.741    -209.796    -250.048
  O      111.294    -209.487    -251.346
  P      109.774    -209.174    -251.711
  C      109.959    -210.791    -253.759
  O      109.537    -209.526    -253.257
  C      110.909    -210.619    -254.957
  O      110.200    -209.903    -256.005
  C      112.137    -209.761    -254.588
  O      113.359    -210.246    -255.128
  C      111.705    -208.359    -254.984
  O      112.790    -207.459    -255.164
  C      110.849    -208.636    -256.216
  N      109.864    -203.991    -258.047
  C      111.016    -204.745    -258.164
  N      112.093    -204.110    -258.676
  N      111.098    -205.994    -257.781
  C      109.979    -206.456    -257.183
  C      108.777    -205.802    -257.010
  C      108.684    -204.437    -257.473
  O      107.723    -203.693    -257.281
  N      107.878    -206.563    -256.304
  C      108.548    -207.662    -256.014
  N      109.837    -207.628    -256.503
  O      109.204    -207.895    -251.184
  O      109.003    -210.387    -250.968
  H      113.346    -207.812    -255.886
  H      108.143    -210.038    -250.662
  H      109.883    -203.007    -258.286
  H      108.164    -208.492    -255.437
  H      111.457    -208.709    -257.117
  H      111.093    -207.957    -254.162
  H      112.097    -203.111    -258.842
  H      112.309    -209.792    -253.507
  H      112.999    -204.556    -258.546
  H      111.180    -211.603    -255.350
  H      109.052    -211.318    -254.069
  H      110.438    -211.381    -252.970
  P      114.392    -211.286    -254.491
  C      116.146    -209.690    -253.511
  O      115.856    -210.635    -254.520
  O      114.503    -212.464    -255.574
  O      113.982    -211.839    -253.170
  H      114.554    -213.325    -255.112
  H      117.043    -209.132    -253.797
  H      116.339    -210.208    -252.567
  H      115.312    -208.988    -253.380
  H      112.798    -209.964    -250.065
  H      111.245    -210.678    -249.701
  H      111.520    -208.981    -249.391

 3  4  5  6  7  8  9  10  11  12  23  26  30  31 0
 6-311+G(2d,p)
 ****
 33  35  36  37  38 0
 6-311+G(2d,p)
 ****
 1  2  13  14  15  16  17  18  19  20  21  22  24  25 0
 3-21G
 ****
 27  28  29  32  34  39  40  41  42  43  44  45  46  47  48  49 0
 3-21G
 ****


