%nproc=1
%NoSave
%Mem=1900MB
#P OB98/GEN NMR

erre ene a

0 1
  C      319.545      61.320    -175.309
  O      318.857      62.440    -174.727
  P      317.913      62.324    -173.433
  C      315.542      62.307    -174.475
  O      316.577      61.544    -173.860
  C      314.196      61.584    -174.375
  O      314.182      60.425    -175.239
  C      313.864      61.025    -172.999
  O      313.501      62.037    -172.075
  C      312.734      60.051    -173.340
  O      311.468      60.722    -173.408
  C      313.142      59.551    -174.738
  N      313.583      58.163    -174.741
  C      312.672      57.218    -174.252
  O      311.599      57.577    -173.778
  N      313.019      55.892    -174.310
  C      314.203      55.549    -174.713
  N      314.485      54.216    -174.759
  C      315.236      56.521    -175.104
  C      314.861      57.801    -175.097
  O      317.658      63.627    -172.753
  O      318.662      61.296    -172.457
  H      318.407      61.481    -171.533
  H      311.186      60.892    -172.486
  H      316.228      56.196    -175.389
  H      315.556      58.582    -175.384
  H      312.307      59.668    -175.441
  H      312.635      59.257    -172.593
  H      314.724      60.463    -172.619
  H      313.410      62.280    -174.705
  H      313.748      53.574    -174.494
  H      315.794      62.442    -175.536
  H      315.366      53.840    -175.076
  H      315.493      63.295    -174.006
  P      314.303      62.071    -170.682
  C      312.934      60.042    -169.809
  O      314.216      60.608    -170.038
  O      313.370      62.968    -169.738
  O      315.681      62.630    -170.777
  H      313.927      63.540    -169.174
  H      313.018      58.954    -169.843
  H      312.208      60.363    -170.563
  H      312.584      60.339    -168.819
  H      320.107      61.649    -176.158
  H      318.832      60.584    -175.617
  H      320.208      60.893    -174.585

 3  4  5  6  7  8  9  10  11  12  13  24  27  28  29  30  32 0
 6-311+G(2d,p)
 ****
 34  35 0
 6-311+G(2d,p)
 ****
 1  2  14  15  16  17  18  19  20  21  22  23  25  26 0
 3-21G
 ****
 31  33  36  37  38  39  40  41  42  43  44  45  46 0
 3-21G
 ****


