%nproc=1
%NoSave
%Mem=1900MB
#P OB98/GEN NMR

erre ene a

0 1
  C     -496.555      85.646    -664.178
  O     -495.343      86.149    -664.713
  P     -493.999      85.336    -664.396
  C     -492.566      87.008    -665.803
  O     -492.772      86.367    -664.554
  C     -491.530      88.135    -665.652
  O     -492.120      89.279    -664.976
  C     -490.331      87.734    -664.797
  O     -489.408      86.949    -665.546
  C     -489.776      89.101    -664.388
  O     -488.939      89.638    -665.421
  C     -491.070      89.927    -664.226
  N     -491.438      90.133    -662.831
  C     -490.603      90.989    -662.102
  O     -489.607      91.515    -662.575
  N     -490.941      91.179    -660.791
  C     -491.971      90.562    -660.125
  O     -492.202      90.720    -658.932
  C     -492.796      89.643    -660.943
  C     -492.499      89.471    -662.234
  O     -493.838      84.351    -665.656
  O     -494.015      84.594    -663.105
  H     -488.620      90.510    -665.104
  H     -493.446      83.502    -665.362
  H     -490.374      91.800    -660.252
  H     -493.637      89.152    -660.446
  H     -493.091      88.794    -662.838
  H     -490.932      90.923    -664.690
  H     -489.177      89.029    -663.479
  H     -490.670      87.198    -663.908
  H     -491.212      88.458    -666.657
  H     -493.528      87.431    -666.148
  H     -492.223      86.272    -666.543
  P     -488.820      85.633    -664.818
  C     -486.648      85.826    -666.273
  O     -487.231      85.758    -664.974
  O     -489.257      84.508    -665.877
  O     -489.347      85.445    -663.448
  H     -489.262      84.827    -666.800
  H     -487.267      86.388    -666.974
  H     -486.483      84.818    -666.653
  H     -485.675      86.337    -666.178
  H     -497.364      86.284    -664.467
  H     -496.488      85.616    -663.110
  H     -496.728      84.659    -664.552

 3  4  5  6  7  8  9  10  11  12  13  23  28  29  30  31  32 0
 6-311+G(2d,p)
 ****
 33  34 0
 6-311+G(2d,p)
 ****
 1  2  14  15  16  17  18  19  20  21  22  24  25  26 0
 3-21G
 ****
 27  35  36  37  38  39  40  41  42  43  44  45 0
 3-21G
 ****


