%nproc=1
%NoSave
%Mem=1900MB
#P OB98/GEN NMR

erre ene a

0 1
  C       44.887     -32.616       3.919
  O       44.416     -32.274       5.212
  P       42.839     -32.019       5.383
  C       42.207     -33.522       7.416
  O       42.212     -33.364       6.000
  C       43.060     -34.726       7.813
  O       44.432     -34.516       7.416
  C       43.106     -35.009       9.310
  O       41.905     -35.616       9.754
  C       44.340     -35.903       9.386
  O       44.009     -37.239       8.978
  C       45.274     -35.253       8.346
  N       49.908     -34.860      10.504
  C       49.210     -35.920      10.040
  N       47.976     -35.952       9.497
  C       47.452     -34.712       9.452
  C       48.026     -33.537       9.906
  C       49.320     -33.639      10.448
  N       50.018     -32.545      10.929
  N       47.176     -32.469       9.714
  C       46.112     -32.986       9.143
  N       46.230     -34.340       8.951
  O       42.307     -32.028       3.877
  O       42.477     -30.757       6.100
  H       43.419     -37.616       9.661
  H       41.560     -31.405       3.762
  H       49.723     -36.884      10.116
  H       45.228     -32.430       8.841
  H       45.843     -35.993       7.769
  H       44.773     -35.963      10.396
  H       43.285     -34.083       9.867
  H       42.678     -35.608       7.270
  H       41.182     -33.685       7.762
  H       50.874     -32.727      11.433
  H       49.531     -31.669      11.013
  H       42.589     -32.605       7.879
  P       40.761     -34.642      10.330
  C       38.815     -35.586       8.936
  O       39.724     -34.511       9.109
  O       41.506     -33.230      10.320
  O       40.178     -35.069      11.635
  H       41.948     -33.053       9.473
  H       38.141     -35.343       8.117
  H       38.225     -35.733       9.849
  H       39.358     -36.502       8.692
  H       45.947     -32.756       3.951
  H       44.652     -31.828       3.234
  H       44.417     -33.522       3.596

 3  4  5  6  7  8  9  10  11  12  22  25  29  30  31  32 0
 6-311+G(2d,p)
 ****
 33  36  37 0
 6-311+G(2d,p)
 ****
 1  2  13  14  15  16  17  18  19  20  21  23  24  26 0
 3-21G
 ****
 27  28  34  35  38  39  40  41  42  43  44  45  46  47  48 0
 3-21G
 ****


