%nproc=1
%NoSave
%Mem=1900MB
#P OB98/GEN NMR

erre ene a

0 1
  C     -207.532    -129.090    -338.554
  O     -207.045    -130.431    -338.640
  P     -207.032    -131.144    -340.073
  C     -207.293    -133.474    -338.983
  O     -206.537    -132.670    -339.885
  C     -206.365    -134.140    -337.951
  O     -206.375    -133.328    -336.737
  C     -206.790    -135.545    -337.506
  O     -206.305    -136.663    -338.253
  C     -206.149    -135.633    -336.129
  O     -204.771    -136.017    -336.253
  C     -206.235    -134.205    -335.599
  N     -208.576    -135.955    -331.381
  C     -207.462    -136.357    -332.034
  N     -206.909    -135.839    -333.153
  C     -207.609    -134.783    -333.584
  C     -208.755    -134.245    -333.016
  C     -209.250    -134.878    -331.866
  N     -210.382    -134.464    -331.201
  N     -209.202    -133.151    -333.749
  C     -208.349    -133.059    -334.748
  N     -207.358    -133.996    -334.686
  O     -206.363    -130.390    -341.174
  O     -208.597    -131.334    -340.378
  H     -204.334    -135.775    -335.407
  H     -208.751    -131.194    -341.334
  H     -206.957    -137.222    -331.606
  H     -208.406    -132.314    -335.538
  H     -205.332    -133.896    -335.057
  H     -206.629    -136.391    -335.489
  H     -207.887    -135.614    -337.416
  H     -205.344    -134.159    -338.335
  H     -207.823    -134.252    -339.547
  H     -210.691    -134.999    -330.405
  H     -210.929    -133.708    -331.580
  H     -208.054    -132.840    -338.525
  P     -207.114    -138.042    -338.314
  C     -205.072    -139.656    -338.130
  O     -206.089    -139.124    -338.923
  O     -208.432    -137.976    -338.998
  O     -207.191    -138.470    -336.770
  H     -206.334    -138.709    -336.378
  H     -204.622    -140.517    -338.649
  H     -205.463    -140.012    -337.166
  H     -204.287    -138.902    -337.970
  H     -207.478    -128.755    -337.539
  H     -208.549    -129.058    -338.886
  H     -206.934    -128.453    -339.172

 3  4  5  6  7  8  9  10  11  12  22  25  29  30  31  32 0
 6-311+G(2d,p)
 ****
 33  36  37 0
 6-311+G(2d,p)
 ****
 1  2  13  14  15  16  17  18  19  20  21  23  24  26 0
 3-21G
 ****
 27  28  34  35  38  39  40  41  42  43  44  45  46  47  48 0
 3-21G
 ****


