%nproc=1
%NoSave
%Mem=1900MB
#P OB98/GEN NMR

erre ene a

0 1
  C     -117.955     -79.719     -73.718
  O     -119.069     -80.264     -73.038
  H     -118.236     -79.534     -74.758
  H     -117.110     -80.411     -73.701
  H     -117.666     -78.768     -73.261
  P     -118.836     -80.859     -71.565
  C     -120.097     -82.875     -72.573
  O     -119.890     -82.065     -71.418
  C     -121.003     -84.066     -72.250
  O     -120.399     -84.886     -71.230
  C     -122.360     -83.669     -71.692
  O     -123.210     -83.044     -72.629
  C     -122.815     -84.946     -71.000
  O     -123.471     -85.861     -71.872
  C     -121.470     -85.549     -70.527
  N     -121.309     -85.460     -69.081
  C     -121.807     -86.531     -68.348
  O     -122.373     -87.498     -68.858
  N     -121.672     -86.440     -66.991
  C     -121.146     -85.381     -66.310
  O     -121.092     -85.342     -65.087
  C     -120.660     -84.266     -67.137
  C     -120.762     -84.353     -68.465
  O     -118.894     -79.866     -70.444
  O     -117.433     -81.618     -71.679
  H     -123.758     -86.621     -71.329
  H     -117.053     -81.799     -70.787
  H     -122.018     -87.212     -66.444
  H     -120.240     -83.408     -66.630
  H     -120.411     -83.542     -69.098
  H     -121.412     -86.609     -70.805
  H     -123.506     -84.733     -70.182
  H     -122.198     -82.932     -70.896
  H     -121.109     -84.674     -73.156
  H     -119.120     -83.244     -72.900
  H     -120.533     -82.269     -73.374
  P     -123.746     -81.548     -72.465
  C     -126.091     -82.486     -71.855
  O     -125.344     -81.565     -72.643
  O     -122.962     -80.473     -73.144
  O     -123.587     -81.328     -70.873
  H     -123.355     -80.391     -70.729
  H     -127.132     -82.384     -72.079
  H     -125.928     -82.282     -70.817
  H     -125.774     -83.484     -72.077

 6  7  8  9  10  11  12  13  14  15  16  26  31  32  33  34  35 0
 6-311+G(2d,p)
 ****
 36  37 0
 6-311+G(2d,p)
 ****
 1  2  3  4  5  17  18  19  20  21  22  23  24  25 0
 3-21G
 ****
 27  28  29  30  38  39  40  41  42  43  44  45 0
 3-21G
 ****


