%nproc=1
%NoSave
%Mem=1900MB
#P OB98/GEN NMR

erre ene a

0 1
  C      -45.055     109.101    -411.916
  O      -43.916     109.936    -412.012
  H      -45.477     108.963    -412.916
  H      -45.807     109.574    -411.281
  H      -44.782     108.122    -411.508
  P      -43.028     110.099    -410.688
  C      -44.165     112.291    -409.881
  O      -43.925     110.914    -409.633
  C      -44.129     113.081    -408.577
  O      -45.090     112.546    -407.635
  C      -42.777     113.051    -407.862
  O      -41.873     114.012    -408.400
  C      -43.199     113.421    -406.450
  O      -43.439     114.846    -406.370
  C      -44.516     112.649    -406.303
  N      -46.741     108.985    -403.585
  C      -47.211     110.242    -403.944
  N      -48.451     110.561    -403.517
  N      -46.537     111.098    -404.663
  C      -45.303     110.641    -405.016
  C      -44.726     109.426    -404.720
  C      -45.492     108.481    -403.937
  O      -45.130     107.358    -403.606
  N      -43.472     109.321    -405.263
  C      -43.280     110.476    -405.867
  N      -44.362     111.320    -405.742
  O      -41.911     111.168    -411.119
  O      -42.406     108.844    -410.173
  H      -42.634     115.285    -406.695
  H      -41.068     110.938    -410.680
  H      -47.302     108.371    -403.023
  H      -42.385     110.757    -406.406
  H      -45.242     113.184    -405.674
  H      -42.436     113.190    -405.708
  H      -49.005     109.969    -402.918
  H      -42.344     112.047    -407.865
  H      -48.831     111.459    -403.792
  H      -44.425     114.118    -408.796
  H      -45.150     112.407    -410.346
  H      -43.401     112.669    -410.573
  P      -40.324     113.598    -408.505
  C      -40.053     114.536    -406.096
  O      -39.816     113.453    -406.986
  O      -39.622     114.954    -409.001
  O      -40.039     112.449    -409.412
  H      -38.780     114.745    -409.446
  H      -39.662     114.296    -405.129
  H      -41.106     114.712    -406.021
  H      -39.570     115.415    -406.468

 6  7  8  9  10  11  12  13  14  15  26  29  33  34 0
 6-311+G(2d,p)
 ****
 36  38  39  40  41 0
 6-311+G(2d,p)
 ****
 1  2  3  4  5  16  17  18  19  20  21  22  23  24  25 0
 3-21G
 ****
 27  28  30  31  32  35  37  42  43  44  45  46  47 0
 3-21G
 ****
 48  49 0
 3-21G
 ****


