%nproc=1
%NoSave
%Mem=1900MB
#P OB98/GEN NMR

erre ene a

0 1
  C     -169.893      -8.572    -138.707
  O     -169.188      -8.660    -137.464
  P     -169.045     -10.117    -136.807
  C     -167.236     -11.250    -138.279
  O     -167.539     -10.633    -137.035
  C     -165.727     -11.207    -138.575
  O     -165.296      -9.845    -138.862
  C     -164.860     -11.714    -137.417
  O     -163.704     -12.354    -137.981
  C     -164.420     -10.433    -136.730
  O     -163.266     -10.640    -135.918
  C     -164.220      -9.528    -137.950
  N     -161.314      -5.475    -136.831
  C     -161.005      -6.750    -137.144
  N     -161.845      -7.783    -137.407
  C     -163.124      -7.369    -137.366
  C     -163.594      -6.101    -137.051
  C     -162.622      -5.120    -136.770
  N     -162.940      -3.823    -136.430
  N     -164.979      -6.080    -137.065
  C     -165.333      -7.316    -137.374
  N     -164.247      -8.120    -137.594
  O     -169.912     -11.042    -137.785
  O     -169.541     -10.195    -135.394
  H     -163.109      -9.818    -135.396
  H     -170.742     -11.307    -137.338
  H     -159.942      -6.981    -137.180
  H     -166.348      -7.677    -137.447
  H     -163.267      -9.716    -138.457
  H     -165.226     -10.057    -136.090
  H     -165.368     -12.402    -136.730
  H     -165.538     -11.811    -139.473
  H     -167.775     -10.747    -139.090
  H     -162.187      -3.192    -136.214
  H     -163.914      -3.561    -136.336
  H     -167.609     -12.282    -138.265
  P     -163.571     -13.935    -137.737
  C     -165.424     -14.596    -139.441
  O     -164.046     -14.639    -139.096
  O     -164.751     -14.259    -136.702
  O     -162.234     -14.359    -137.214
  H     -164.534     -15.057    -136.182
  H     -165.511     -14.422    -140.519
  H     -165.950     -13.789    -138.912
  H     -165.886     -15.549    -139.194
  H     -169.916      -7.553    -139.033
  H     -170.894      -8.927    -138.575
  H     -169.396      -9.170    -139.442

 3  4  5  6  7  8  9  10  11  12  22  25  29  30  31  32 0
 6-311+G(2d,p)
 ****
 33  36  37 0
 6-311+G(2d,p)
 ****
 1  2  13  14  15  16  17  18  19  20  21  23  24  26 0
 3-21G
 ****
 27  28  34  35  38  39  40  41  42  43  44  45  46  47  48 0
 3-21G
 ****


