%nproc=1
%NoSave
%Mem=1900MB
#P OB98/GEN NMR

erre ene a

0 1
  C     -216.009     488.565     229.667
  O     -215.434     488.412     230.978
  P     -214.019     487.701     231.246
  C     -212.245     489.582     231.339
  O     -213.099     488.718     232.079
  C     -211.100     490.100     232.227
  O     -210.149     490.850     231.428
  C     -211.515     491.069     233.324
  O     -212.181     490.428     234.390
  C     -210.172     491.687     233.701
  O     -209.468     490.864     234.645
  C     -209.424     491.698     232.350
  N     -209.243     493.033     231.804
  C     -208.216     493.802     232.354
  O     -207.563     493.379     233.304
  N     -207.966     495.047     231.810
  C     -208.740     495.508     230.884
  N     -208.435     496.742     230.384
  C     -209.921     494.789     230.382
  C     -210.113     493.567     230.878
  O     -213.362     487.172     230.013
  O     -214.330     486.524     232.285
  H     -213.670     485.816     232.182
  H     -208.614     491.315     234.824
  H     -210.570     495.239     229.635
  H     -210.947     492.958     230.548
  H     -208.437     491.223     232.453
  H     -210.277     492.683     234.152
  H     -212.162     491.842     232.889
  H     -210.579     489.231     232.665
  H     -207.610     497.203     230.738
  H     -212.828     490.438     230.987
  H     -208.958     497.182     229.640
  H     -211.848     489.045     230.470
  P     -213.497     491.140     234.966
  C     -215.418     490.658     233.288
  O     -214.762     490.292     234.481
  O     -213.596     492.496     234.110
  O     -213.456     491.430     236.426
  H     -213.895     493.225     234.681
  H     -215.895     489.777     232.856
  H     -214.719     491.084     232.554
  H     -216.198     491.403     233.506
  H     -216.950     489.067     229.747
  H     -216.155     487.601     229.227
  H     -215.349     489.141     229.053

 3  4  5  6  7  8  9  10  11  12  13  24  27  28  29  30  32 0
 6-311+G(2d,p)
 ****
 34  35 0
 6-311+G(2d,p)
 ****
 1  2  14  15  16  17  18  19  20  21  22  23  25  26 0
 3-21G
 ****
 31  33  36  37  38  39  40  41  42  43  44  45  46 0
 3-21G
 ****


