%nproc=1
%NoSave
%Mem=1900MB
#P OB98/GEN NMR

erre ene a

0 1
  C     -294.879    -157.498    -249.498
  O     -296.100    -157.085    -250.127
  P     -296.117    -157.127    -251.735
  C     -295.553    -155.458    -253.650
  O     -295.415    -155.779    -252.272
  C     -294.989    -154.072    -253.972
  O     -295.852    -153.061    -253.390
  C     -293.575    -153.807    -253.449
  O     -292.865    -153.013    -254.406
  C     -293.810    -152.944    -252.223
  O     -292.662    -152.168    -251.879
  C     -295.016    -152.131    -252.682
  N     -294.936    -148.520    -249.129
  C     -294.052    -148.762    -250.167
  N     -292.983    -147.943    -250.247
  N     -294.199    -149.727    -251.038
  C     -295.335    -150.448    -250.851
  C     -296.295    -150.303    -249.880
  C     -296.093    -149.258    -248.891
  O     -296.816    -149.025    -247.923
  N     -297.305    -151.226    -250.019
  C     -296.945    -151.939    -251.073
  N     -295.751    -151.511    -251.609
  O     -297.668    -156.927    -252.091
  O     -295.584    -158.397    -252.309
  H     -292.882    -151.676    -251.064
  H     -297.975    -157.665    -252.637
  H     -294.764    -147.785    -248.471
  H     -297.492    -152.784    -251.472
  H     -294.716    -151.344    -253.391
  H     -294.055    -153.587    -251.364
  H     -292.840    -147.146    -249.641
  H     -292.995    -154.714    -253.221
  H     -292.336    -148.079    -251.019
  H     -295.023    -153.930    -255.061
  H     -296.611    -155.494    -253.931
  H     -295.030    -156.223    -254.237
  P     -291.420    -153.547    -254.860
  C     -288.992    -153.129    -254.023
  O     -290.373    -152.849    -253.870
  O     -291.170    -152.807    -256.258
  O     -291.328    -155.035    -254.972
  H     -290.569    -153.334    -256.816
  H     -288.775    -153.657    -254.953
  H     -288.660    -153.737    -253.178
  H     -288.438    -152.185    -254.009
  H     -294.984    -157.429    -248.435
  H     -294.080    -156.863    -249.819
  H     -294.662    -158.510    -249.770

 3  4  5  6  7  8  9  10  11  12  23  26  30  31  33  0
 6-311+G(2d,p)
 ****
 35  36  37  38 0
 6-311+G(2d,p)
 ****
 1  2  13  14  15  16  17  18  19  20  21  22  24  25  27  28  29 0
 3-21G
 ****
 32  34  39  40  41  42  43  44  45  46  47  48  49 0
 3-21G
 ****


