%nproc=1
%NoSave
%Mem=1900MB
#P OB98/GEN NMR

erre ene a

0 1
  C     -957.892    1028.716    -117.671
  O     -957.197    1028.630    -116.443
  H     -958.964    1028.733    -117.466
  H     -957.666    1027.849    -118.298
  H     -957.619    1029.636    -118.189
  P     -955.597    1028.557    -116.523
  C     -955.214    1026.172    -117.469
  O     -955.307    1027.560    -117.756
  C     -954.149    1025.511    -118.349
  O     -954.532    1025.596    -119.739
  C     -952.771    1026.146    -118.256
  O     -952.069    1025.638    -117.126
  C     -952.144    1025.680    -119.559
  O     -951.670    1024.332    -119.413
  C     -953.333    1025.715    -120.533
  N     -952.759    1027.659    -125.250
  C     -952.411    1026.459    -124.729
  N     -952.536    1026.039    -123.461
  C     -953.120    1026.978    -122.687
  C     -953.526    1028.245    -123.084
  C     -953.336    1028.579    -124.437
  N     -953.696    1029.792    -124.972
  N     -954.067    1028.941    -122.022
  C     -954.042    1028.090    -121.024
  N     -953.440    1026.905    -121.356
  O     -954.895    1028.250    -115.246
  O     -955.262    1029.990    -117.160
  H     -951.337    1024.049    -120.285
  H     -955.906    1030.216    -117.850
  H     -951.961    1025.756    -125.421
  H     -954.456    1028.278    -120.042
  H     -953.316    1024.859    -121.223
  H     -951.290    1026.289    -119.858
  H     -952.818    1027.243    -118.245
  H     -954.115    1024.448    -118.080
  H     -956.186    1025.687    -117.627
  H     -953.346    1030.006    -125.894
  H     -953.994    1030.516    -124.337
  H     -954.945    1026.068    -116.413
  P     -950.626    1026.212    -116.721
  C     -948.988    1024.957    -118.251
  O     -949.758    1026.140    -118.068
  O     -950.022    1025.559    -115.516
  O     -950.872    1027.779    -116.535
  H     -950.121    1028.178    -116.020
  H     -948.454    1025.019    -119.176
  H     -949.638    1024.108    -118.271
  H     -948.293    1024.855    -117.444

 6  7  8  9  10  11  12  13  14  15  25  28  32  33  34  35 0
 6-311+G(2d,p)
 ****
 36  39  40 0
 6-311+G(2d,p)
 ****
 1  2  3  4  5  16  17  18  19  20  21  22  23  24 0
 3-21G
 ****
 26  27  29  30  31  37  38  41  42  43  44  45  46  47 0
 3-21G
 ****
 48 0
 3-21G
 ****


