%nproc=1
%NoSave
%Mem=1900MB
#P OB98/GEN NMR

erre ene a

0 1
  C     -200.038     -78.747     551.157
  O     -199.359     -77.795     551.947
  P     -198.601     -78.240     553.289
  C     -196.101     -77.624     553.310
  O     -197.083     -78.557     552.867
  C     -194.842     -77.753     552.460
  O     -195.129     -77.524     551.056
  C     -193.763     -76.723     552.788
  O     -193.150     -76.806     554.054
  C     -192.864     -76.843     551.573
  O     -191.973     -77.957     551.687
  C     -193.893     -77.084     550.440
  N     -194.092     -75.894     549.614
  C     -193.126     -75.665     548.641
  O     -192.156     -76.394     548.458
  N     -193.296     -74.529     547.891
  C     -194.282     -73.605     548.042
  O     -194.350     -72.586     547.367
  C     -195.264     -73.893     549.103
  C     -195.126     -75.009     549.831
  O     -199.268     -79.327     554.067
  O     -198.449     -76.865     554.098
  H     -191.306     -77.874     550.978
  H     -197.941     -76.176     553.633
  H     -192.597     -74.337     547.188
  H     -196.069     -73.184     549.247
  H     -195.839     -75.243     550.617
  H     -193.560     -77.904     549.788
  H     -192.240     -75.953     551.434
  H     -194.222     -75.729     552.747
  H     -194.463     -78.772     552.550
  H     -195.853     -77.840     554.357
  H     -196.515     -76.609     553.265
  P     -193.855     -76.329     555.413
  C     -193.634     -78.550     556.730
  O     -194.498     -77.613     556.125
  O     -194.689     -75.092     555.332
  O     -192.580     -76.032     556.347
  H     -192.802     -75.312     556.967
  H     -194.236     -79.374     557.125
  H     -193.081     -78.095     557.550
  H     -192.934     -78.956     555.989
  H     -200.477     -78.261     550.311
  H     -200.806     -79.211     551.739
  H     -199.346     -79.491     550.822

 3  4  5  6  7  8  9  10  11  12  13  23  28  29  30  31  32 0
 6-311+G(2d,p)
 ****
 33  34 0
 6-311+G(2d,p)
 ****
 1  2  14  15  16  17  18  19  20  21  22  24  25  26  27 0
 3-21G
 ****
 35  36  37  38  39  40  41  42  43  44  45 0
 3-21G
 ****


