%nproc=1
%NoSave
%Mem=1900MB
#P OB98/GEN NMR

erre ene a

0 1
  C      -80.902    -244.665    -322.804
  O      -79.504    -244.367    -322.874
  P      -78.778    -244.568    -324.292
  C      -79.257    -242.126    -325.117
  O      -78.300    -243.103    -324.742
  C      -78.557    -240.923    -325.751
  O      -79.517    -239.895    -326.093
  C      -77.542    -240.246    -324.841
  O      -76.353    -241.011    -324.731
  C      -77.380    -238.902    -325.546
  O      -76.482    -239.030    -326.659
  C      -78.810    -238.632    -326.050
  N      -79.524    -237.646    -325.248
  C      -80.117    -236.603    -325.950
  O      -80.039    -236.486    -327.173
  N      -80.795    -235.683    -325.198
  C      -80.905    -235.687    -323.837
  O      -81.535    -234.838    -323.218
  C      -80.217    -236.786    -323.145
  C      -79.567    -237.704    -323.867
  O      -80.030    -244.884    -325.238
  O      -77.722    -245.620    -324.267
  H      -80.832    -244.392    -324.984
  H      -75.584    -239.113    -326.280
  H      -81.245    -234.925    -325.690
  H      -80.264    -236.807    -322.062
  H      -79.051    -238.519    -323.373
  H      -78.785    -238.267    -327.086
  H      -76.975    -238.131    -324.884
  H      -77.980    -240.092    -323.847
  H      -78.072    -241.261    -326.675
  H      -79.816    -241.793    -324.235
  H      -79.971    -242.577    -325.811
  P      -75.649    -241.044    -323.288
  C      -77.082    -242.828    -322.023
  O      -75.886    -242.518    -322.698
  O      -76.641    -240.121    -322.434
  O      -74.228    -240.579    -323.302
  H      -77.575    -240.316    -322.601
  H      -77.210    -243.916    -322.014
  H      -77.949    -242.376    -322.512
  H      -77.019    -242.477    -320.988
  H      -81.255    -244.489    -321.809
  H      -81.061    -245.691    -323.062
  H      -81.435    -244.038    -323.488

 3  4  5  6  7  8  9  10  11  12  13  24  28  29  30  31  32 0
 6-311+G(2d,p)
 ****
 33  34 0
 6-311+G(2d,p)
 ****
 1  2  14  15  16  17  18  19  20  21  22  23  25  26  27 0
 3-21G
 ****
 35  36  37  38  39  40  41  42  43  44  45 0
 3-21G
 ****


