%nproc=1
%NoSave
%Mem=1900MB
#P OB98/GEN NMR

erre ene a

0 1
  C     -212.328    -244.827      18.227
  O     -212.756    -244.241      16.993
  P     -212.581    -245.120      15.662
  C     -214.948    -244.275      14.919
  O     -213.583    -244.477      14.585
  C     -215.415    -242.912      14.409
  O     -214.892    -241.851      15.243
  C     -214.953    -242.585      12.997
  O     -215.688    -243.316      12.027
  C     -215.171    -241.078      12.965
  O     -216.550    -240.777      12.714
  C     -214.793    -240.671      14.407
  N     -213.476    -240.056      14.502
  C     -213.341    -238.811      13.898
  O     -214.259    -238.255      13.291
  N     -212.105    -238.230      13.994
  C     -211.011    -238.775      14.595
  O     -209.931    -238.201      14.659
  C     -211.201    -240.115      15.173
  C     -212.403    -240.687      15.104
  O     -213.290    -246.485      16.099
  O     -211.160    -245.252      15.231
  H     -214.052    -246.348      16.686
  H     -216.772    -241.192      11.856
  H     -211.992    -237.321      13.571
  H     -210.343    -240.587      15.639
  H     -212.563    -241.675      15.522
  H     -215.529    -239.958      14.800
  H     -214.578    -240.586      12.185
  H     -213.884    -242.809      12.894
  H     -216.511    -242.886      14.463
  H     -215.079    -244.317      16.004
  H     -215.541    -245.084      14.482
  P     -214.898    -243.764      10.701
  C     -215.415    -246.304      10.373
  O     -215.735    -244.969      10.060
  O     -213.610    -244.475      11.333
  O     -214.585    -242.631       9.780
  H     -213.827    -245.062      12.078
  H     -216.276    -246.938      10.140
  H     -215.172    -246.421      11.434
  H     -214.565    -246.630       9.768
  H     -212.501    -244.138      19.028
  H     -211.284    -245.054      18.171
  H     -212.880    -245.726      18.405

 3  4  5  6  7  8  9  10  11  12  13  24  28  29  30  31  32 0
 6-311+G(2d,p)
 ****
 33  34 0
 6-311+G(2d,p)
 ****
 1  2  14  15  16  17  18  19  20  21  22  23  25  26  27 0
 3-21G
 ****
 35  36  37  38  39  40  41  42  43  44  45 0
 3-21G
 ****


