%nproc=1
%NoSave
%Mem=1900MB
#P OB98/GEN NMR

erre ene a

0 1
  C      132.696     -90.387     649.346
  O      132.920     -89.339     648.396
  P      134.420     -89.085     647.895
  C      134.878     -87.455     649.871
  O      134.910     -87.670     648.469
  C      135.984     -86.480     650.286
  O      137.300     -87.040     650.098
  C      135.977     -85.176     649.486
  O      135.033     -84.239     649.996
  C      137.391     -84.668     649.735
  O      137.464     -84.038     651.021
  C      138.205     -85.966     649.726
  N      142.556     -86.682     647.235
  C      142.325     -86.414     648.580
  N      143.415     -86.328     649.370
  N      141.140     -86.248     649.085
  C      140.139     -86.371     648.179
  C      140.233     -86.632     646.830
  C      141.558     -86.805     646.274
  O      141.824     -87.036     645.092
  N      139.003     -86.688     646.246
  C      138.146     -86.477     647.229
  N      138.796     -86.261     648.429
  O      134.230     -88.789     646.326
  O      135.352     -90.235     648.128
  H      136.883     -83.245     650.981
  H      135.031     -89.048     645.841
  H      143.486     -86.804     646.897
  H      137.074     -86.467     647.134
  H      139.023     -85.952     650.453
  H      137.696     -83.924     648.994
  H      144.362     -86.497     649.048
  H      135.821     -85.374     648.411
  H      143.268     -86.168     650.358
  H      135.849     -86.235     651.349
  H      135.009     -88.403     650.400
  H      133.890     -87.085     650.159
  P      133.523     -84.318     649.441
  C      133.369     -81.829     648.727
  O      132.923     -82.840     649.601
  O      132.778     -85.174     650.574
  O      133.390     -84.943     648.095
  H      132.054     -85.677     650.171
  H      132.747     -80.939     648.876
  H      133.306     -82.139     647.692
  H      134.417     -81.560     648.967
  H      131.654     -90.436     649.584
  H      133.256     -90.187     650.236
  H      133.011     -91.320     648.928

 3  4  5  6  7  8  9  10  11  12  23  26  30  31 0
 6-311+G(2d,p)
 ****
 33  35  36  37  38 0
 6-311+G(2d,p)
 ****
 1  2  13  14  15  16  17  18  19  20  21  22  24  25 0
 3-21G
 ****
 27  28  29  32  34  39  40  41  42  43  44  45  46  47  48  49 0
 3-21G
 ****


