%nproc=1
%NoSave
%Mem=1900MB
#P OB98/GEN NMR

erre ene a

0 1
  C     -262.307     136.584    -603.014
  O     -262.721     136.881    -604.335
  P     -264.276     137.199    -604.577
  C     -263.884     139.612    -603.681
  O     -264.651     138.417    -603.596
  C     -264.794     140.829    -603.531
  O     -265.611     141.004    -604.712
  C     -265.775     140.742    -602.370
  O     -265.170     141.079    -601.134
  C     -266.793     141.791    -602.774
  O     -266.307     143.104    -602.434
  C     -266.854     141.619    -604.297
  N     -271.891     141.365    -604.733
  C     -271.083     142.449    -604.435
  N     -271.710     143.612    -604.156
  N     -269.777     142.396    -604.414
  C     -269.288     141.155    -604.703
  C     -269.987     140.015    -605.019
  C     -271.428     140.095    -605.024
  O     -272.206     139.160    -605.227
  N     -269.146     138.967    -605.263
  C     -267.938     139.467    -605.099
  N     -267.969     140.787    -604.718
  O     -265.014     135.945    -603.907
  O     -264.667     137.379    -606.011
  H     -266.000     143.063    -601.509
  H     -265.937     135.891    -604.222
  H     -272.890     141.457    -604.724
  H     -267.014     138.915    -605.229
  H     -266.931     142.578    -604.812
  H     -267.754     141.666    -602.265
  H     -272.713     143.705    -604.089
  H     -266.251     139.760    -602.337
  H     -271.142     144.400    -603.872
  H     -264.153     141.717    -603.432
  H     -263.377     139.647    -604.646
  H     -263.124     139.605    -602.893
  P     -265.802     140.413    -599.820
  C     -264.478     138.172    -599.795
  O     -265.710     138.824    -600.059
  O     -267.366     140.724    -599.963
  O     -265.242     140.924    -598.534
  H     -267.791     140.753    -599.089
  H     -264.660     137.093    -599.752
  H     -264.058     138.499    -598.836
  H     -263.775     138.377    -600.602
  H     -261.254     136.395    -603.004
  H     -262.828     135.718    -602.663
  H     -262.526     137.415    -602.376

 3  4  5  6  7  8  9  10  11  12  23  26  30  31 0
 6-311+G(2d,p)
 ****
 33  35  36  37  38 0
 6-311+G(2d,p)
 ****
 1  2  13  14  15  16  17  18  19  20  21  22  24  25 0
 3-21G
 ****
 27  28  29  32  34  39  40  41  42  43  44  45  46  47  48  49 0
 3-21G
 ****


