%nproc=1
%NoSave
%Mem=1900MB
#P OB98/GEN NMR

erre ene a

0 1
  C     -737.570     111.289     449.925
  O     -738.824     111.655     450.469
  H     -736.788     111.559     450.638
  H     -737.400     111.829     448.991
  H     -737.528     110.211     449.747
  P     -740.137     111.143     449.706
  C     -741.468     113.374     449.601
  O     -741.344     112.089     450.188
  C     -742.369     114.257     450.458
  O     -743.601     113.528     450.738
  C     -741.757     114.649     451.812
  O     -742.175     115.987     452.123
  C     -742.410     113.685     452.779
  O     -742.433     114.139     454.123
  C     -743.812     113.555     452.163
  N     -744.513     112.360     452.614
  C     -745.422     112.517     453.660
  O     -745.732     113.583     454.177
  N     -745.988     111.352     454.124
  C     -745.724     110.089     453.673
  O     -746.250     109.089     454.139
  C     -744.753     109.998     452.570
  C     -744.202     111.116     452.105
  O     -740.448     109.748     450.425
  O     -740.007     111.007     448.224
  H     -739.987     109.017     449.968
  H     -741.509     114.283     454.404
  H     -746.644     111.441     454.880
  H     -744.510     109.011     452.194
  H     -743.469     111.081     451.309
  H     -744.406     114.450     452.391
  H     -741.884     112.722     452.756
  H     -740.666     114.590     451.843
  H     -742.649     115.150     449.881
  H     -741.908     113.276     448.600
  H     -740.471     113.824     449.504
  P     -741.137     116.922     452.910
  C     -742.820     118.196     454.462
  O     -741.962     118.229     453.326
  O     -740.196     117.404     451.716
  O     -740.439     116.210     454.019
  H     -740.674     117.537     450.880
  H     -743.285     119.152     454.586
  H     -742.247     117.962     455.335
  H     -743.573     117.449     454.319

 6  7  8  9  10  11  12  13  14  15  16  27  31  32  33  34  35 0
 6-311+G(2d,p)
 ****
 36  37 0
 6-311+G(2d,p)
 ****
 1  2  3  4  5  17  18  19  20  21  22  23  24  25 0
 3-21G
 ****
 26  28  29  30  38  39  40  41  42  43  44  45 0
 3-21G
 ****


