%nproc=1
%NoSave
%Mem=1900MB
#P OB98/GEN NMR

erre ene a

0 1
  C      207.893    -265.584     272.206
  O      208.044    -264.409     271.431
  H      208.877    -266.022     272.399
  H      207.436    -265.316     273.162
  H      207.252    -266.308     271.697
  P      208.415    -264.596     269.887
  C      206.135    -265.519     269.056
  O      207.500    -265.799     269.339
  C      205.775    -265.968     267.641
  O      206.056    -267.393     267.525
  C      204.303    -265.749     267.256
  O      204.246    -265.333     265.887
  C      203.700    -267.136     267.380
  O      202.551    -267.307     266.557
  C      204.876    -268.009     266.973
  N      203.360    -272.682     265.658
  C      203.680    -271.596     264.923
  N      204.134    -270.401     265.352
  C      204.308    -270.412     266.680
  C      204.034    -271.444     267.567
  C      203.524    -272.624     267.001
  N      203.131    -273.710     267.750
  N      204.296    -271.049     268.866
  C      204.698    -269.791     268.772
  N      204.718    -269.362     267.468
  O      209.882    -265.245     269.956
  O      208.401    -263.350     269.058
  H      201.982    -266.521     266.648
  H      210.550    -264.537     269.999
  H      203.543    -271.696     263.846
  H      204.947    -269.148     269.600
  H      205.003    -268.077     265.877
  H      203.413    -267.320     268.419
  H      203.786    -265.014     267.885
  H      206.441    -265.452     266.934
  H      205.965    -264.436     269.137
  H      202.670    -274.473     267.266
  H      203.137    -273.641     268.754
  H      205.500    -266.030     269.789
  P      203.210    -264.167     265.502
  C      204.895    -262.242     265.994
  O      203.638    -262.837     266.291
  O      201.867    -264.622     266.240
  O      203.006    -264.003     264.035
  H      201.092    -264.341     265.726
  H      205.029    -261.371     266.600
  H      204.924    -261.966     264.961
  H      205.678    -262.942     266.198

 6  7  8  9  10  11  12  13  14  15  25  28  32  33  34  35 0
 6-311+G(2d,p)
 ****
 36  39  40 0
 6-311+G(2d,p)
 ****
 1  2  3  4  5  16  17  18  19  20  21  22  23  24 0
 3-21G
 ****
 26  27  29  30  31  37  38  41  42  43  44  45  46  47 0
 3-21G
 ****
 48 0
 3-21G
 ****


