%nproc=1
%NoSave
%Mem=1900MB
#P OB98/GEN NMR

erre ene a

0 1
  C     -119.836      64.395     121.636
  O     -119.931      65.793     121.930
  P     -121.415      66.412     121.918
  C     -121.282      67.384     119.516
  O     -121.918      66.460     120.386
  C     -121.506      67.020     118.047
  O     -120.991      68.058     117.161
  C     -120.843      65.698     117.629
  O     -121.696      65.087     116.654
  C     -119.569      66.172     116.936
  O     -119.014      65.159     116.104
  C     -120.112      67.405     116.208
  N     -117.890      69.393     112.137
  C     -118.856      68.409     112.230
  N     -119.340      67.921     111.063
  N     -119.310      67.952     113.363
  C     -118.762      68.565     114.451
  C     -117.816      69.561     114.481
  C     -117.294      70.038     113.212
  O     -116.441      70.910     113.068
  N     -117.537      69.947     115.777
  C     -118.270      69.129     116.510
  N     -119.072      68.321     115.759
  O     -121.173      67.951     122.291
  O     -122.353      65.748     122.877
  H     -119.719      64.869     115.486
  H     -121.383      68.104     123.235
  H     -117.563      69.704     111.228
  H     -118.285      69.109     117.591
  H     -120.695      67.141     115.322
  H     -118.817      66.459     117.681
  H     -119.070      68.268     110.153
  H     -120.636      65.007     118.453
  H     -120.071      67.230     111.107
  H     -122.591      66.953     117.870
  H     -120.203      67.404     119.711
  H     -121.647      68.397     119.738
  P     -122.709      63.953     117.163
  C     -121.887      62.026     115.624
  O     -121.990      62.538     116.943
  O     -123.859      63.959     116.034
  O     -123.289      64.188     118.517
  H     -124.730      63.835     116.461
  H     -121.019      61.365     115.563
  H     -121.767      62.834     114.887
  H     -122.795      61.458     115.381
  H     -118.810      64.092     121.671
  H     -120.229      64.209     120.659
  H     -120.397      63.840     122.358

 3  4  5  6  7  8  9  10  11  12  23  26  30  31 0
 6-311+G(2d,p)
 ****
 33  35  36  37  38 0
 6-311+G(2d,p)
 ****
 1  2  13  14  15  16  17  18  19  20  21  22  24  25 0
 3-21G
 ****
 27  28  29  32  34  39  40  41  42  43  44  45  46  47  48  49 0
 3-21G
 ****


