%nproc=1
%NoSave
%Mem=1900MB
#P OB98/GEN NMR

erre ene a

0 1
  C     -533.376    -369.095    -137.518
  O     -532.486    -369.028    -136.416
  P     -533.030    -369.240    -134.931
  C     -532.746    -371.790    -134.733
  O     -533.672    -370.712    -134.845
  C     -532.959    -372.534    -133.412
  O     -532.463    -371.740    -132.309
  C     -534.426    -372.813    -133.086
  O     -534.892    -373.911    -133.858
  C     -534.338    -373.088    -131.586
  O     -533.910    -374.426    -131.324
  C     -533.257    -372.082    -131.146
  N     -535.892    -370.233    -127.194
  C     -535.635    -371.490    -127.583
  N     -534.953    -371.910    -128.684
  C     -534.544    -370.857    -129.404
  C     -534.760    -369.521    -129.150
  C     -535.456    -369.203    -127.958
  N     -535.663    -367.924    -127.501
  N     -534.207    -368.734    -130.142
  C     -533.681    -369.593    -130.990
  N     -533.796    -370.886    -130.552
  O     -533.897    -368.144    -134.412
  O     -531.700    -369.379    -134.056
  H     -533.850    -374.527    -130.351
  H     -531.685    -368.662    -133.388
  H     -536.019    -372.280    -126.939
  H     -533.175    -369.320    -131.921
  H     -532.561    -372.530    -130.417
  H     -535.302    -372.944    -131.085
  H     -535.013    -371.925    -133.268
  H     -532.375    -373.444    -133.449
  H     -531.735    -371.383    -134.772
  H     -536.037    -367.819    -126.582
  H     -535.098    -367.168    -127.898
  H     -532.884    -372.472    -135.578
  P     -536.469    -374.151    -133.995
  C     -536.707    -372.486    -135.926
  O     -537.107    -372.823    -134.607
  O     -537.156    -374.678    -132.776
  O     -536.593    -375.191    -135.205
  H     -537.350    -375.780    -135.061
  H     -535.710    -372.049    -135.916
  H     -537.402    -371.753    -136.327
  H     -536.712    -373.385    -136.568
  H     -532.833    -368.929    -138.425
  H     -534.132    -368.345    -137.412
  H     -533.834    -370.061    -137.548

 3  4  5  6  7  8  9  10  11  12  22  25  29  30  31  32 0
 6-311+G(2d,p)
 ****
 33  36  37 0
 6-311+G(2d,p)
 ****
 1  2  13  14  15  16  17  18  19  20  21  23  24  26 0
 3-21G
 ****
 27  28  34  35  38  39  40  41  42  43  44  45  46  47  48 0
 3-21G
 ****


