%nproc=1
%NoSave
%Mem=1900MB
#P OB98/GEN NMR

erre ene a

0 1
  C      -27.444     -10.178      78.343
  O      -27.400     -10.419      79.738
  P      -28.743     -10.884      80.476
  C      -29.309      -8.506      81.363
  O      -29.714      -9.611      80.569
  C      -30.378      -7.412      81.340
  O      -30.463      -6.848      79.995
  C      -31.784      -7.903      81.718
  O      -32.447      -6.831      82.404
  C      -32.431      -8.117      80.362
  O      -33.849      -8.143      80.419
  C      -31.844      -6.929      79.592
  N      -31.977      -7.069      78.143
  C      -33.050      -6.426      77.534
  O      -33.884      -5.755      78.140
  N      -33.178      -6.629      76.186
  C      -32.415      -7.461      75.421
  O      -32.655      -7.689      74.242
  C      -31.296      -8.114      76.119
  C      -31.130      -7.892      77.425
  O      -28.270     -11.113      81.988
  O      -29.380     -12.104      79.899
  H      -34.178      -8.170      79.502
  H      -28.130     -12.062      82.160
  H      -33.944      -6.160      75.726
  H      -30.657      -8.767      75.537
  H      -30.326      -8.377      77.968
  H      -32.327      -5.996      79.914
  H      -32.093      -9.071      79.944
  H      -31.781      -8.807      82.334
  H      -30.065      -6.602      82.011
  H      -28.375      -8.104      80.967
  H      -29.121      -8.841      82.390
  P      -33.352      -7.200      83.678
  C      -35.419      -7.852      82.217
  O      -34.456      -8.244      83.171
  O      -34.171      -5.835      83.868
  O      -32.562      -7.597      84.882
  H      -34.487      -5.468      83.027
  H      -35.009      -7.135      81.502
  H      -36.274      -7.404      82.728
  H      -35.759      -8.737      81.673
  H      -26.475      -9.877      78.002
  H      -28.151      -9.402      78.137
  H      -27.739     -11.073      77.836

 3  4  5  6  7  8  9  10  11  12  13  23  28  29  30  31  32 0
 6-311+G(2d,p)
 ****
 33  34 0
 6-311+G(2d,p)
 ****
 1  2  14  15  16  17  18  19  20  21  22  24  25  26 0
 3-21G
 ****
 27  35  36  37  38  39  40  41  42  43  44  45 0
 3-21G
 ****


