%nproc=1
%NoSave
%Mem=1900MB
#P OB98/GEN NMR

erre ene a

0 1
  C     -307.122     100.307     -48.028
  O     -307.775      99.533     -47.014
  P     -309.353      99.799     -46.823
  C     -309.939      98.184     -48.772
  O     -310.146      98.531     -47.405
  C     -309.953      96.666     -48.986
  O     -309.000      96.048     -48.080
  C     -311.311      95.997     -48.738
  O     -311.469      94.933     -49.690
  C     -311.137      95.358     -47.368
  O     -312.045      94.273     -47.164
  C     -309.665      94.952     -47.432
  N     -306.735      91.824     -44.743
  C     -307.006      91.832     -46.098
  N     -306.429      90.857     -46.833
  N     -307.771      92.719     -46.677
  C     -308.255      93.657     -45.823
  C     -308.051      93.762     -44.463
  C     -307.238      92.742     -43.826
  O     -307.005      92.651     -42.626
  N     -308.713      94.843     -43.940
  C     -309.314      95.395     -44.975
  N     -309.073      94.700     -46.139
  O     -309.654     100.969     -47.873
  O     -309.726     100.203     -45.435
  H     -311.972      93.688     -47.948
  H     -310.052     101.734     -47.415
  H     -306.158      91.103     -44.338
  H     -309.951      96.267     -44.940
  H     -309.526      94.058     -48.051
  H     -311.320      96.109     -46.590
  H     -305.782      90.182     -46.460
  H     -312.165      96.674     -48.786
  H     -306.578      90.874     -47.836
  H     -309.608      96.463     -50.005
  H     -308.978      98.587     -49.103
  H     -310.724      98.654     -49.375
  P     -312.455      95.230     -50.926
  C     -310.352      94.790     -52.400
  O     -311.739      94.591     -52.213
  O     -312.301      96.807     -51.154
  O     -313.872      94.818     -50.695
  H     -313.112      97.170     -51.555
  H     -309.874      95.216     -51.510
  H     -310.203      95.474     -53.243
  H     -309.881      93.829     -52.626
  H     -306.085     100.047     -48.063
  H     -307.221     101.348     -47.801
  H     -307.573     100.104     -48.977

 3  4  5  6  7  8  9  10  11  12  23  26  30  31  33  0
 6-311+G(2d,p)
 ****
 35  36  37  38 0
 6-311+G(2d,p)
 ****
 1  2  13  14  15  16  17  18  19  20  21  22  24  25  27  28  29 0
 3-21G
 ****
 32  34  39  40  41  42  43  44  45  46  47  48  49 0
 3-21G
 ****


