%nproc=1
%NoSave
%Mem=1900MB
#P OB98/GEN NMR

erre ene a

0 1
  C      626.672     244.047     209.729
  O      626.871     242.850     210.448
  H      625.936     243.863     208.937
  H      627.608     244.373     209.268
  H      626.288     244.825     210.393
  P      627.991     242.870     211.591
  C      630.199     244.247     211.579
  O      629.363     243.321     210.894
  C      631.270     244.772     210.625
  O      630.667     245.651     209.646
  C      632.354     245.594     211.305
  O      633.327     244.797     211.954
  C      632.926     246.346     210.110
  O      633.907     245.572     209.413
  C      631.679     246.588     209.237
  N      631.222     247.973     209.320
  C      631.389     248.740     208.165
  O      631.887     248.298     207.133
  N      630.995     250.046     208.255
  C      630.515     250.663     209.372
  O      630.234     251.861     209.405
  C      630.371     249.807     210.569
  C      630.736     248.523     210.490
  O      628.222     241.317     211.908
  O      627.627     243.642     212.819
  H      627.816     241.092     212.768
  H      634.274     246.159     208.722
  H      631.112     250.620     207.433
  H      629.993     250.273     211.474
  H      630.650     247.882     211.362
  H      631.907     246.373     208.185
  H      633.411     247.268     210.430
  H      631.902     246.318     211.996
  H      631.713     243.917     210.091
  H      630.686     243.749     212.422
  H      629.580     245.067     211.963
  P      634.323     245.520     212.979
  C      636.085     247.442     212.626
  O      635.324     246.382     212.067
  O      635.197     244.272     213.475
  O      633.623     246.274     214.056
  H      635.231     243.566     212.800
  H      636.686     247.890     211.863
  H      636.717     247.058     213.399
  H      635.425     248.177     213.037

 6  7  8  9  10  11  12  13  14  15  16  27  31  32  33  34  35 0
 6-311+G(2d,p)
 ****
 36  37 0
 6-311+G(2d,p)
 ****
 1  2  3  4  5  17  18  19  20  21  22  23  24  25 0
 3-21G
 ****
 26  28  29  30  38  39  40  41  42  43  44  45 0
 3-21G
 ****


