%nproc=1
%NoSave
%Mem=1900MB
#P OB98/GEN NMR

erre ene a

0 1
  C     -527.977    -564.731     -12.696
  O     -527.445    -565.348     -13.855
  H     -527.231    -564.046     -12.286
  H     -528.211    -565.491     -11.939
  H     -528.876    -564.164     -12.952
  P     -528.375    -566.441     -14.572
  C     -529.173    -564.956     -16.545
  O     -529.528    -565.622     -15.339
  C     -530.167    -565.299     -17.649
  O     -531.506    -564.885     -17.298
  C     -529.848    -564.666     -18.997
  O     -528.886    -565.430     -19.712
  C     -531.218    -564.676     -19.667
  O     -531.523    -565.979     -20.202
  C     -532.147    -564.355     -18.489
  N     -533.862    -560.163     -20.743
  C     -533.636    -561.424     -21.258
  N     -533.870    -561.591     -22.578
  N     -533.195    -562.435     -20.543
  C     -532.950    -562.107     -19.255
  C     -533.124    -560.899     -18.623
  C     -533.659    -559.799     -19.413
  O     -533.959    -558.682     -18.994
  N     -532.778    -560.965     -17.292
  C     -532.348    -562.212     -17.141
  N     -532.436    -562.937     -18.300
  O     -529.163    -567.118     -13.350
  O     -527.657    -567.462     -15.386
  H     -532.411    -565.958     -20.611
  H     -529.256    -568.076     -13.530
  H     -534.227    -559.434     -21.330
  H     -531.987    -562.627     -16.207
  H     -533.122    -564.857     -18.572
  H     -531.269    -563.977     -20.505
  H     -533.922    -560.805     -23.214
  H     -529.518    -563.627     -18.883
  H     -533.640    -562.495     -22.967
  H     -530.187    -566.398     -17.740
  H     -528.168    -565.272     -16.842
  H     -529.178    -563.877     -16.374
  P     -528.114    -564.733     -20.926
  C     -526.255    -563.785     -19.373
  O     -527.268    -563.508     -20.339
  O     -529.294    -564.019     -21.744
  O     -527.346    -565.675     -21.800
  H     -529.482    -564.522     -22.565
  H     -525.782    -562.871     -19.080
  H     -525.526    -564.443     -19.799
  H     -526.697    -564.249     -18.516

 6  7  8  9  10  11  12  13  14  15  26  29  33  34 0
 6-311+G(2d,p)
 ****
 36  38  39  40  41 0
 6-311+G(2d,p)
 ****
 1  2  3  4  5  16  17  18  19  20  21  22  23  24  25 0
 3-21G
 ****
 27  28  30  31  32  35  37  42  43  44  45  46  47 0
 3-21G
 ****
 48  49 0
 3-21G
 ****


