%nproc=1
%NoSave
%Mem=1900MB
#P OB98/GEN NMR

erre ene a

0 1
  C       -9.049      40.156     226.058
  O      -10.232      40.670     225.442
  P      -10.493      40.736     223.868
  C      -12.961      39.823     223.819
  O      -11.587      39.633     223.493
  C      -13.851      38.821     223.072
  O      -13.789      39.113     221.640
  C      -13.387      37.367     223.253
  O      -14.446      36.442     223.461
  C      -12.495      37.140     222.041
  O      -12.293      35.774     221.732
  C      -13.203      37.970     220.971
  N      -11.869      37.494     216.067
  C      -12.751      36.741     216.809
  N      -13.346      35.709     216.177
  N      -13.012      36.967     218.068
  C      -12.287      37.972     218.608
  C      -11.371      38.787     217.977
  C      -11.124      38.564     216.566
  O      -10.368      39.218     215.853
  N      -10.847      39.709     218.834
  C      -11.431      39.448     219.999
  N      -12.321      38.397     219.897
  O       -9.274      40.796     223.002
  O      -11.294      42.120     223.672
  H      -11.773      35.725     220.905
  H      -11.042      42.466     222.793
  H      -11.723      37.294     215.087
  H      -11.260      39.984     220.923
  H      -14.012      37.418     220.493
  H      -11.512      37.573     222.262
  H      -13.103      35.409     215.245
  H      -12.779      37.264     224.164
  H      -13.812      35.036     216.781
  H      -14.891      38.951     223.398
  H      -13.208      40.838     223.508
  H      -13.114      39.761     224.900
  P      -14.765      35.556     224.749
  C      -17.103      36.536     225.188
  O      -15.781      36.374     225.688
  O      -13.408      35.565     225.602
  O      -15.184      34.153     224.461
  H      -13.074      34.657     225.689
  H      -17.601      37.311     225.775
  H      -17.650      35.599     225.296
  H      -17.077      36.839     224.144
  H       -9.139      40.232     227.122
  H       -8.202      40.722     225.731
  H       -8.921      39.130     225.783

 3  4  5  6  7  8  9  10  11  12  23  26  30  31 0
 6-311+G(2d,p)
 ****
 33  35  36  37  38 0
 6-311+G(2d,p)
 ****
 1  2  13  14  15  16  17  18  19  20  21  22  24  25 0
 3-21G
 ****
 27  28  29  32  34  39  40  41  42  43  44  45  46  47  48  49 0
 3-21G
 ****


