%nproc=1
%NoSave
%Mem=1900MB
#P OB98/GEN NMR

erre ene a

0 1
  C     -146.439     283.711     523.218
  O     -146.459     283.244     521.881
  H     -146.035     282.923     523.859
  H     -147.452     283.952     523.552
  H     -145.796     284.593     523.304
  P     -147.019     284.224     520.745
  C     -149.144     282.750     520.704
  O     -148.613     284.072     520.774
  C     -150.336     282.714     519.761
  O     -151.219     283.830     520.019
  C     -149.960     282.794     518.280
  O     -149.550     281.523     517.802
  C     -151.278     283.261     517.680
  O     -152.196     282.158     517.614
  C     -151.753     284.277     518.745
  N     -151.405     288.052     515.369
  C     -151.886     286.761     515.208
  N     -152.281     286.413     513.967
  N     -151.944     285.878     516.182
  C     -151.440     286.352     517.349
  C     -150.927     287.600     517.623
  C     -150.918     288.578     516.552
  O     -150.524     289.738     516.650
  N     -150.453     287.682     518.908
  C     -150.713     286.497     519.430
  N     -151.299     285.643     518.520
  O     -146.424     284.062     519.375
  O     -146.773     285.688     521.340
  H     -151.770     281.467     517.074
  H     -145.915     286.047     521.048
  H     -151.373     288.670     514.574
  H     -150.500     286.203     520.450
  H     -152.844     284.309     518.828
  H     -151.178     283.672     516.680
  H     -152.001     286.934     513.147
  H     -149.196     283.565     518.099
  H     -152.588     285.457     513.823
  H     -150.909     281.798     519.970
  H     -149.449     282.469     521.722
  H     -148.374     282.052     520.363
  P     -148.001     281.218     517.466
  C     -148.158     282.603     515.280
  O     -147.532     282.454     516.556
  O     -147.744     279.875     516.884
  O     -147.234     281.487     518.841
  H     -147.184     280.696     519.432
  H     -147.754     283.460     514.783
  H     -149.212     282.731     515.413
  H     -147.976     281.730     514.689

 6  7  8  9  10  11  12  13  14  15  26  29  33  34 0
 6-311+G(2d,p)
 ****
 36  38  39  40  41 0
 6-311+G(2d,p)
 ****
 1  2  3  4  5  16  17  18  19  20  21  22  23  24  25 0
 3-21G
 ****
 27  28  30  31  32  35  37  42  43  44  45  46  47 0
 3-21G
 ****
 48  49 0
 3-21G
 ****


