%nproc=1
%NoSave
%Mem=1900MB
#P OB98/GEN NMR

erre ene a

0 1
  C      -16.538     -85.543     135.592
  O      -16.798     -86.818     136.145
  H      -15.747     -85.643     134.844
  H      -16.202     -84.847     136.366
  H      -17.433     -85.151     135.102
  P      -17.847     -86.922     137.357
  C      -16.097     -86.602     139.242
  O      -16.976     -87.500     138.581
  C      -15.523     -87.255     140.499
  O      -14.600     -86.369     141.168
  C      -16.555     -87.616     141.564
  O      -17.334     -88.755     141.231
  C      -15.634     -87.866     142.749
  O      -14.994     -89.145     142.600
  C      -14.610     -86.714     142.582
  N      -14.937     -85.540     143.393
  C      -14.131     -85.308     144.513
  O      -13.200     -86.067     144.781
  N      -14.418     -84.240     145.328
  C      -15.436     -83.479     145.059
  N      -15.707     -82.463     145.924
  C      -16.303     -83.676     143.879
  C      -16.004     -84.717     143.103
  O      -19.116     -87.659     137.073
  O      -18.079     -85.405     137.816
  H      -14.574     -89.153     141.722
  H      -18.731     -85.416     138.558
  H      -17.144     -83.020     143.706
  H      -16.605     -84.936     142.224
  H      -13.602     -87.051     142.840
  H      -16.158     -87.873     143.708
  H      -17.195     -86.758     141.794
  H      -14.947     -88.135     140.179
  H      -15.118     -82.385     146.743
  H      -16.661     -85.696     139.493
  H      -16.617     -82.015     145.944
  H      -15.266     -86.334     138.583
  P      -18.932     -88.603     141.252
  C      -18.734     -87.615     143.658
  O      -19.368     -88.545     142.798
  O      -19.436     -90.041     140.771
  O      -19.490     -87.488     140.424
  H      -19.594     -90.053     139.805
  H      -19.139     -87.708     144.644
  H      -18.902     -86.622     143.296
  H      -17.683     -87.812     143.684

 6  7  8  9  10  11  12  13  14  15  16  26  30  31  32  33  35 0
 6-311+G(2d,p)
 ****
 37  38 0
 6-311+G(2d,p)
 ****
 1  2  3  4  5  17  18  19  20  21  22  23  24  25 0
 3-21G
 ****
 27  28  29  34  36  39  40  41  42  43  44  45  46 0
 3-21G
 ****


