%nproc=1
%NoSave
%Mem=1900MB
#P OB98/GEN NMR

erre ene a

0 1
  C     -249.079     -86.356    -183.438
  O     -248.855     -87.329    -184.476
  P     -247.424     -87.974    -184.793
  C     -245.586     -87.835    -186.604
  O     -246.834     -87.322    -186.138
  C     -245.013     -86.994    -187.746
  O     -245.756     -87.257    -188.988
  C     -245.051     -85.468    -187.513
  O     -243.839     -84.937    -188.052
  C     -246.269     -85.052    -188.329
  O     -246.310     -83.668    -188.628
  C     -246.087     -85.960    -189.549
  N     -247.242     -86.066    -190.430
  C     -247.671     -84.895    -191.080
  O     -247.141     -83.817    -190.867
  N     -248.735     -84.980    -191.953
  C     -249.319     -86.125    -192.149
  N     -250.362     -86.136    -193.038
  C     -248.916     -87.373    -191.486
  C     -247.885     -87.268    -190.648
  O     -247.426     -89.466    -184.805
  O     -246.449     -87.415    -183.642
  H     -245.801     -88.123    -183.410
  H     -246.289     -83.179    -187.779
  H     -249.426     -88.304    -191.694
  H     -247.503     -88.151    -190.135
  H     -245.217     -85.628    -190.126
  H     -247.176     -85.298    -187.764
  H     -245.113     -85.200    -186.451
  H     -243.987     -87.321    -187.931
  H     -250.604     -85.264    -193.491
  H     -245.743     -88.864    -186.963
  H     -250.875     -86.971    -193.279
  H     -244.882     -87.872    -185.765
  P     -242.761     -84.265    -187.077
  C     -241.970     -81.834    -186.551
  O     -242.914     -82.673    -187.183
  O     -241.390     -84.513    -187.879
  O     -242.660     -84.846    -185.702
  H     -240.649     -84.536    -187.253
  H     -241.691     -81.032    -187.235
  H     -241.064     -82.378    -186.261
  H     -242.426     -81.396    -185.650
  H     -250.113     -86.080    -183.425
  H     -248.481     -85.489    -183.627
  H     -248.810     -86.776    -182.491

 3  4  5  6  7  8  9  10  11  12  13  24  27  28  29  30  32 0
 6-311+G(2d,p)
 ****
 34  35 0
 6-311+G(2d,p)
 ****
 1  2  14  15  16  17  18  19  20  21  22  23  25  26 0
 3-21G
 ****
 31  33  36  37  38  39  40  41  42  43  44  45  46 0
 3-21G
 ****


