%nproc=1
%NoSave
%Mem=1900MB
#P OB98/GEN NMR

erre ene a

0 1
  C      904.219    -251.157    -535.029
  O      904.085    -252.177    -534.049
  P      904.232    -253.709    -534.521
  C      906.773    -254.056    -534.131
  O      905.730    -253.879    -535.086
  C      907.544    -255.354    -534.391
  O      906.639    -256.484    -534.205
  C      908.123    -255.483    -535.807
  O      909.338    -256.221    -535.703
  C      907.085    -256.322    -536.535
  O      907.629    -256.957    -537.690
  C      906.673    -257.276    -535.414
  N      904.214    -261.126    -537.709
  C      905.528    -260.807    -537.631
  N      906.112    -259.775    -536.998
  C      905.186    -258.999    -536.402
  C      903.810    -259.166    -536.431
  C      903.322    -260.300    -537.115
  N      901.988    -260.620    -537.201
  N      903.185    -258.160    -535.732
  C      904.162    -257.395    -535.296
  N      905.379    -257.880    -535.654
  O      903.335    -253.755    -535.849
  O      903.790    -254.725    -533.527
  H      908.036    -256.271    -538.250
  H      902.540    -254.304    -535.685
  H      906.205    -261.498    -538.130
  H      904.036    -256.488    -534.723
  H      907.403    -258.082    -535.262
  H      906.250    -255.685    -536.853
  H      908.306    -254.519    -536.300
  H      908.334    -255.439    -533.640
  H      906.330    -254.104    -533.130
  H      901.731    -261.508    -537.584
  H      901.333    -260.121    -536.604
  H      907.450    -253.201    -534.169
  P      910.638    -255.613    -536.434
  C      912.004    -254.853    -534.364
  O      911.207    -254.470    -535.474
  O      910.010    -254.805    -537.657
  O      911.621    -256.642    -536.892
  H      910.660    -254.761    -538.392
  H      912.751    -254.071    -534.182
  H      912.505    -255.799    -534.533
  H      911.357    -254.940    -533.476
  H      904.097    -250.200    -534.567
  H      903.471    -251.287    -535.783
  H      905.190    -251.216    -535.475

 3  4  5  6  7  8  9  10  11  12  22  25  29  30  31  32 0
 6-311+G(2d,p)
 ****
 33  36  37 0
 6-311+G(2d,p)
 ****
 1  2  13  14  15  16  17  18  19  20  21  23  24  26 0
 3-21G
 ****
 27  28  34  35  38  39  40  41  42  43  44  45  46  47  48 0
 3-21G
 ****


