%nproc=1
%NoSave
%Mem=1900MB
#P OB98/GEN NMR

erre ene a

0 1
  C       13.898    -148.268     180.240
  O       13.027    -147.171     180.057
  P       13.147    -146.205     178.779
  C       14.971    -144.722     179.826
  O       13.633    -144.786     179.352
  C       15.134    -143.630     180.890
  O       16.458    -143.729     181.485
  C       14.966    -142.197     180.369
  O       14.370    -141.452     181.433
  C       16.403    -141.760     180.147
  O       16.543    -140.344     180.084
  C       17.094    -142.441     181.336
  N       18.537    -142.561     181.131
  C       19.348    -141.694     181.874
  O       18.842    -140.831     182.595
  N       20.711    -141.787     181.738
  C       21.215    -142.602     180.860
  N       22.573    -142.658     180.775
  C       20.390    -143.441     179.971
  C       19.075    -143.380     180.166
  O       11.938    -146.150     177.906
  O       14.456    -146.738     178.026
  H       17.478    -140.136     179.866
  H       14.252    -147.569     177.524
  H       20.851    -144.064     179.217
  H       18.386    -143.959     179.562
  H       16.923    -141.878     182.259
  H       16.774    -142.173     179.201
  H       14.363    -142.128     179.463
  H       14.405    -143.828     181.685
  H       23.101    -142.077     181.417
  H       15.620    -144.481     178.976
  H       23.063    -143.313     180.190
  H       15.279    -145.698     180.215
  P       12.912    -140.799     181.280
  C       13.844    -138.423     181.471
  O       12.954    -139.378     182.016
  O       11.778    -141.686     181.688
  O       12.811    -140.409     179.729
  H       11.876    -140.242     179.493
  H       13.590    -137.434     181.856
  H       13.783    -138.407     180.378
  H       14.870    -138.669     181.771
  H       13.647    -148.775     181.148
  H       14.907    -147.917     180.295
  H       13.800    -148.943     179.416

 3  4  5  6  7  8  9  10  11  12  13  23  27  28  29  30  32 0
 6-311+G(2d,p)
 ****
 34  35 0
 6-311+G(2d,p)
 ****
 1  2  14  15  16  17  18  19  20  21  22  24  25  26 0
 3-21G
 ****
 31  33  36  37  38  39  40  41  42  43  44  45  46 0
 3-21G
 ****


