%nproc=1
%NoSave
%Mem=1900MB
#P OB98/GEN NMR

erre ene a

0 1
  C     -410.000     251.661     -54.001
  O     -410.750     250.509     -54.397
  P     -411.997     249.948     -53.557
  C     -412.984     248.994     -55.742
  O     -412.692     248.756     -54.373
  C     -413.743     247.825     -56.378
  O     -412.935     246.629     -56.368
  C     -415.040     247.446     -55.665
  O     -416.073     248.371     -55.953
  C     -415.269     246.040     -56.208
  O     -415.895     246.078     -57.499
  C     -413.832     245.497     -56.313
  N     -413.486     244.605     -55.216
  C     -413.776     243.247     -55.402
  O     -414.361     242.869     -56.418
  N     -413.437     242.358     -54.408
  C     -412.914     242.795     -53.305
  N     -412.587     241.868     -52.366
  C     -412.661     244.226     -53.039
  C     -412.967     245.062     -54.029
  O     -412.948     251.007     -53.104
  O     -411.342     249.203     -52.295
  H     -416.747     246.539     -57.381
  H     -411.952     249.273     -51.537
  H     -412.253     244.548     -52.094
  H     -412.811     246.126     -53.917
  H     -413.694     244.959     -57.263
  H     -415.908     245.439     -55.556
  H     -414.860     247.391     -54.581
  H     -413.950     248.087     -57.423
  H     -412.764     240.896     -52.580
  H     -412.032     249.136     -56.278
  H     -412.170     242.098     -51.469
  H     -413.566     249.919     -55.828
  P     -416.663     249.288     -54.778
  C     -416.267     251.260     -56.381
  O     -417.149     250.661     -55.446
  O     -415.793     249.444     -53.574
  O     -418.044     248.577     -54.399
  H     -418.222     248.717     -53.444
  H     -416.844     251.926     -57.035
  H     -415.760     250.503     -56.985
  H     -415.520     251.853     -55.850
  H     -409.222     251.842     -54.713
  H     -409.569     251.492     -53.036
  H     -410.648     252.511     -53.958

 3  4  5  6  7  8  9  10  11  12  13  23  27  28  29  30  32 0
 6-311+G(2d,p)
 ****
 34  35 0
 6-311+G(2d,p)
 ****
 1  2  14  15  16  17  18  19  20  21  22  24  25  26 0
 3-21G
 ****
 31  33  36  37  38  39  40  41  42  43  44  45  46 0
 3-21G
 ****


