%nproc=1
%NoSave
%Mem=1900MB
#P OB98/GEN NMR

erre ene a

0 1
  C      208.665    -718.189      53.044
  O      207.637    -717.884      53.962
  H      209.630    -718.002      53.521
  H      208.590    -717.561      52.150
  H      208.614    -719.245      52.761
  P      206.125    -717.829      53.414
  C      206.259    -715.391      52.569
  O      205.686    -716.284      53.523
  C      205.683    -713.982      52.723
  O      204.322    -713.949      52.232
  C      205.598    -713.507      54.163
  O      206.854    -713.251      54.759
  C      204.562    -712.391      54.082
  O      205.121    -711.130      53.724
  C      203.638    -712.896      52.948
  N      202.342    -713.333      53.448
  C      201.232    -712.747      52.844
  O      201.306    -711.904      51.953
  N      200.017    -713.145      53.329
  C      199.810    -714.005      54.366
  O      198.691    -714.284      54.780
  C      201.018    -714.570      54.985
  C      202.214    -714.211      54.507
  O      205.163    -718.777      54.063
  O      206.284    -718.052      51.838
  H      205.762    -710.894      54.426
  H      205.426    -718.303      51.428
  H      199.198    -712.745      52.894
  H      200.896    -715.251      55.815
  H      203.126    -714.610      54.945
  H      203.459    -712.091      52.218
  H      204.047    -712.256      55.032
  H      205.136    -714.304      54.757
  H      206.278    -713.294      52.113
  H      206.021    -715.774      51.572
  H      207.348    -715.373      52.689
  P      207.266    -713.812      56.196
  C      205.664    -712.444      57.718
  O      206.999    -712.652      57.285
  O      208.547    -714.586      56.272
  O      206.065    -714.843      56.497
  H      206.438    -715.591      57.002
  H      205.641    -711.649      58.434
  H      205.291    -713.340      58.168
  H      205.053    -712.185      56.879

 6  7  8  9  10  11  12  13  14  15  16  26  31  32  33  34  35 0
 6-311+G(2d,p)
 ****
 36  37 0
 6-311+G(2d,p)
 ****
 1  2  3  4  5  17  18  19  20  21  22  23  24  25 0
 3-21G
 ****
 27  28  29  30  38  39  40  41  42  43  44  45 0
 3-21G
 ****


