%nproc=1
%NoSave
%Mem=1900MB
#P OB98/GEN NMR

erre ene a

0 1
  C      330.947     243.902    -460.200
  O      331.356     243.502    -461.493
  H      330.214     244.708    -460.297
  H      331.808     244.276    -459.639
  H      330.487     243.068    -459.665
  P      332.278     242.190    -461.582
  C      332.217     239.997    -462.966
  O      331.533     241.177    -462.580
  C      331.223     238.867    -463.225
  O      330.614     238.442    -461.985
  C      330.072     239.249    -464.153
  O      330.444     239.148    -465.524
  C      329.050     238.181    -463.786
  O      329.411     236.929    -464.405
  C      329.227     238.089    -462.265
  N      325.198     238.328    -459.197
  C      325.801     237.234    -459.779
  N      325.254     236.032    -459.520
  N      326.851     237.309    -460.558
  C      327.294     238.578    -460.742
  C      326.778     239.741    -460.211
  C      325.623     239.644    -459.348
  O      325.059     240.578    -458.786
  N      327.499     240.836    -460.614
  C      328.431     240.341    -461.403
  N      328.350     238.971    -461.516
  O      332.086     241.504    -460.146
  O      333.718     242.438    -461.879
  H      328.751     236.271    -464.117
  H      332.931     241.093    -459.880
  H      324.386     238.211    -458.614
  H      329.191     240.919    -461.905
  H      329.062     237.079    -461.882
  H      328.044     238.429    -464.125
  H      324.416     235.902    -458.974
  H      329.669     240.235    -463.912
  H      325.697     235.208    -459.914
  H      331.776     238.010    -463.631
  H      332.902     239.695    -462.167
  H      332.793     240.199    -463.873
  P      329.311     239.442    -466.624
  C      329.292     240.572    -468.967
  O      330.049     240.243    -467.805
  O      328.410     240.568    -465.928
  O      328.510     238.253    -467.038
  H      327.517     240.568    -466.312
  H      329.913     241.100    -469.660
  H      328.463     241.189    -468.690
  H      328.932     239.674    -469.424

 6  7  8  9  10  11  12  13  14  15  26  29  33  34 0
 6-311+G(2d,p)
 ****
 36  38  39  40  41 0
 6-311+G(2d,p)
 ****
 1  2  3  4  5  16  17  18  19  20  21  22  23  24  25 0
 3-21G
 ****
 27  28  30  31  32  35  37  42  43  44  45  46  47 0
 3-21G
 ****
 48  49 0
 3-21G
 ****


