%nproc=1
%NoSave
%Mem=1900MB
#P OB98/GEN NMR

erre ene a

0 1
  C      266.543    -276.014     203.532
  O      267.909    -276.306     203.206
  P      268.598    -277.621     203.823
  C      269.200    -278.985     201.676
  O      269.654    -278.196     202.764
  C      269.989    -278.645     200.408
  O      269.834    -277.243     200.075
  C      271.492    -278.857     200.524
  O      271.840    -280.229     200.434
  C      272.009    -278.026     199.363
  O      271.930    -278.758     198.128
  C      271.016    -276.842     199.356
  N      271.592    -275.622     199.913
  C      272.252    -274.780     199.022
  O      272.410    -275.049     197.832
  N      272.754    -273.624     199.556
  C      272.728    -273.270     200.877
  O      273.215    -272.225     201.297
  C      272.091    -274.233     201.783
  C      271.570    -275.352     201.272
  O      267.413    -278.694     203.725
  O      269.084    -277.494     205.233
  H      270.995    -279.029     198.023
  H      267.517    -279.366     204.429
  H      273.208    -272.983     198.924
  H      272.073    -274.007     202.839
  H      271.094    -276.079     201.923
  H      270.687    -276.632     198.333
  H      273.054    -277.728     199.488
  H      271.858    -278.429     201.466
  H      269.576    -279.242     199.575
  H      268.141    -278.785     201.501
  H      269.320    -280.047     201.927
  P      272.338    -280.939     201.788
  C      271.507    -283.359     201.229
  O      272.596    -282.471     201.391
  O      270.988    -280.951     202.641
  O      273.479    -280.224     202.441
  H      270.197    -281.064     202.081
  H      270.629    -282.846     200.832
  H      271.269    -283.809     202.200
  H      271.804    -284.151     200.532
  H      266.244    -275.111     203.042
  H      266.447    -275.893     204.591
  H      265.919    -276.820     203.207

 3  4  5  6  7  8  9  10  11  12  13  23  28  29  30  31  32 0
 6-311+G(2d,p)
 ****
 33  34 0
 6-311+G(2d,p)
 ****
 1  2  14  15  16  17  18  19  20  21  22  24  25  26 0
 3-21G
 ****
 27  35  36  37  38  39  40  41  42  43  44  45 0
 3-21G
 ****


