%nproc=1
%NoSave
%Mem=1900MB
#P OB98/GEN NMR

erre ene a

0 1
  C       38.785    -143.647     447.585
  O       37.921    -142.686     447.016
  H       39.144    -143.268     448.544
  H       39.643    -143.809     446.928
  H       38.267    -144.594     447.755
  P       37.005    -143.111     445.775
  C       35.829    -145.043     447.017
  O       35.680    -143.785     446.375
  C       34.626    -145.950     446.724
  O       34.836    -147.231     447.370
  C       33.331    -145.367     447.298
  O       32.184    -145.778     446.559
  C       33.272    -145.985     448.686
  O       31.953    -146.022     449.227
  C       33.873    -147.365     448.428
  N       34.278    -151.424     451.485
  C       33.353    -151.167     450.493
  N       32.416    -152.121     450.285
  N       33.335    -150.069     449.784
  C       34.287    -149.176     450.147
  C       35.244    -149.306     451.129
  C       35.273    -150.542     451.882
  O       36.056    -150.809     452.788
  N       36.030    -148.183     451.213
  C       35.549    -147.375     450.289
  N       34.506    -147.943     449.599
  O       37.778    -144.367     445.148
  O       36.770    -142.043     444.750
  H       31.601    -145.113     449.201
  H       37.523    -144.491     444.217
  H       34.265    -152.298     451.981
  H       35.926    -146.385     450.072
  H       33.100    -148.066     448.091
  H       33.880    -145.374     449.358
  H       32.278    -152.879     450.935
  H       33.346    -144.281     447.354
  H       31.566    -151.822     449.798
  H       34.557    -146.145     445.648
  H       35.909    -144.847     448.089
  H       36.758    -145.521     446.704
  P       31.387    -144.679     445.708
  C       32.576    -144.515     443.348
  O       31.521    -144.999     444.150
  O       32.252    -143.350     445.900
  O       29.964    -144.488     446.127
  H       31.738    -142.676     446.383
  H       32.449    -144.862     442.344
  H       33.509    -144.871     443.733
  H       32.571    -143.445     443.359

 6  7  8  9  10  11  12  13  14  15  26  29  33  34 0
 6-311+G(2d,p)
 ****
 36  38  39  40  41 0
 6-311+G(2d,p)
 ****
 1  2  3  4  5  16  17  18  19  20  21  22  23  24  25 0
 3-21G
 ****
 27  28  30  31  32  35  37  42  43  44  45  46  47 0
 3-21G
 ****
 48  49 0
 3-21G
 ****


