%nproc=1
%NoSave
%Mem=1900MB
#P OB98/GEN NMR

erre ene a

0 1
  C       38.260    -103.267     454.987
  O       37.350    -103.922     455.845
  H       37.954    -103.447     453.951
  H       39.266    -103.669     455.123
  H       38.260    -102.189     455.167
  P       37.480    -103.692     457.425
  C       35.072    -102.803     457.660
  O       36.456    -102.523     457.815
  C       34.332    -101.533     457.234
  O       34.722    -101.155     455.895
  C       32.816    -101.686     457.192
  O       32.264    -101.657     458.494
  C       32.431    -100.511     456.311
  O       32.403     -99.290     457.067
  C       33.588    -100.498     455.285
  N       33.227    -101.134     454.018
  C       33.247    -100.323     452.886
  O       33.515     -99.122     452.923
  N       32.917    -100.933     451.710
  C       32.470    -102.215     451.566
  O       32.099    -102.688     450.498
  C       32.446    -103.020     452.798
  C       32.822    -102.452     453.946
  O       38.869    -103.511     457.940
  O       36.789    -104.996     458.055
  H       32.052     -98.602     456.468
  H       37.479    -105.595     458.393
  H       32.914    -100.359     450.881
  H       32.109    -104.046     452.724
  H       32.802    -103.030     454.866
  H       33.899     -99.468     455.073
  H       31.448    -100.635     455.864
  H       32.546    -102.618     456.682
  H       34.624    -100.720     457.911
  H       34.672    -103.150     458.618
  H       34.949    -103.593     456.913
  P       31.347    -102.866     459.002
  C       32.433    -103.277     461.296
  O       32.233    -103.781     459.978
  O       30.619    -103.609     457.929
  O       30.315    -102.165     460.007
  H       29.404    -102.297     459.677
  H       33.034    -103.965     461.854
  H       31.486    -103.157     461.780
  H       32.929    -102.331     461.244

 6  7  8  9  10  11  12  13  14  15  16  26  31  32  33  34  35 0
 6-311+G(2d,p)
 ****
 36  37 0
 6-311+G(2d,p)
 ****
 1  2  3  4  5  17  18  19  20  21  22  23  24  25 0
 3-21G
 ****
 27  28  29  30  38  39  40  41  42  43  44  45 0
 3-21G
 ****


