%nproc=1
%NoSave
%Mem=1900MB
#P OB98/GEN NMR

erre ene a

0 1
  C       16.411    -146.526      79.860
  O       17.433    -145.906      80.617
  P       17.876    -144.405      80.279
  C       19.729    -145.262      78.717
  O       18.589    -144.418      78.842
  C       20.160    -145.362      77.256
  O       19.061    -145.821      76.437
  C       20.596    -144.036      76.647
  O       21.895    -143.686      77.078
  C       20.479    -144.341      75.156
  O       21.644    -145.046      74.692
  C       19.244    -145.257      75.118
  N       15.985    -144.529      71.261
  C       17.182    -145.154      71.325
  N       18.013    -145.273      72.385
  C       17.503    -144.636      73.453
  C       16.316    -143.925      73.531
  C       15.518    -143.902      72.371
  N       14.272    -143.320      72.311
  N       16.154    -143.386      74.792
  C       17.232    -143.756      75.459
  N       18.039    -144.565      74.710
  O       18.636    -143.706      81.356
  O       16.491    -143.655      79.985
  H       22.416    -144.473      74.866
  H       16.377    -142.926      80.624
  H       17.512    -145.632      70.407
  H       17.460    -143.481      76.481
  H       19.386    -146.101      74.432
  H       20.381    -143.439      74.548
  H       19.875    -143.249      76.909
  H       20.966    -146.106      77.185
  H       19.465    -146.257      79.095
  H       13.729    -143.487      71.477
  H       13.790    -143.123      73.184
  H       20.548    -144.862      79.324
  P       22.325    -142.143      77.155
  C       22.925    -141.955      74.668
  O       22.066    -141.514      75.705
  O       23.671    -141.874      77.738
  O       21.163    -141.478      78.040
  H       21.534    -140.737      78.555
  H       23.891    -141.447      74.752
  H       22.472    -141.704      73.705
  H       23.074    -143.038      74.719
  H       16.250    -147.519      80.224
  H       16.704    -146.567      78.832
  H       15.507    -145.961      79.952

 3  4  5  6  7  8  9  10  11  12  22  25  29  30  31  32 0
 6-311+G(2d,p)
 ****
 33  36  37 0
 6-311+G(2d,p)
 ****
 1  2  13  14  15  16  17  18  19  20  21  23  24  26 0
 3-21G
 ****
 27  28  34  35  38  39  40  41  42  43  44  45  46  47  48 0
 3-21G
 ****


