%nproc=1
%NoSave
%Mem=1900MB
#P OB98/GEN NMR

erre ene a

0 1
  C     -113.653     -80.523     209.526
  O     -113.482     -81.559     210.476
  H     -114.714     -80.263     209.477
  H     -113.332     -80.848     208.532
  H     -113.086     -79.638     209.826
  P     -112.032     -82.225     210.618
  C     -112.366     -84.058     208.823
  O     -111.703     -82.850     209.181
  C     -111.370     -85.038     208.207
  O     -110.739     -84.448     207.053
  C     -110.240     -85.418     209.151
  O     -110.683     -86.341     210.124
  C     -109.212     -85.943     208.169
  O     -109.509     -87.289     207.774
  C     -109.390     -84.967     206.982
  N     -108.411     -83.886     206.990
  C     -107.307     -84.052     206.147
  O     -107.201     -85.059     205.450
  N     -106.340     -83.075     206.137
  C     -106.472     -82.025     206.883
  N     -105.479     -81.097     206.826
  C     -107.626     -81.805     207.773
  C     -108.546     -82.767     207.781
  O     -111.832     -83.171     211.762
  O     -111.046     -80.965     210.700
  H     -108.849     -87.517     207.089
  H     -110.925     -80.687     211.626
  H     -107.696     -80.911     208.375
  H     -109.430     -82.684     208.407
  H     -109.306     -85.501     206.029
  H     -108.211     -85.937     208.595
  H     -109.828     -84.521     209.626
  H     -111.922     -85.926     207.872
  H     -104.699     -81.294     206.208
  H     -113.141     -83.799     208.096
  H     -105.515     -80.205     207.291
  H     -112.846     -84.509     209.698
  P     -110.203     -86.213     211.650
  C     -108.927     -88.431     211.330
  O     -108.846     -87.069     211.742
  O     -111.238     -86.537     212.673
  O     -109.675     -84.701     211.735
  H     -110.425     -84.058     211.749
  H     -107.968     -88.893     211.436
  H     -109.233     -88.476     210.306
  H     -109.640     -88.946     211.939

 6  7  8  9  10  11  12  13  14  15  16  26  30  31  32  33  35 0
 6-311+G(2d,p)
 ****
 37  38 0
 6-311+G(2d,p)
 ****
 1  2  3  4  5  17  18  19  20  21  22  23  24  25 0
 3-21G
 ****
 27  28  29  34  36  39  40  41  42  43  44  45  46 0
 3-21G
 ****


