%nproc=1
%NoSave
%Mem=1900MB
#P OB98/GEN NMR

erre ene a

0 1
  C      -48.814     135.746    -114.398
  O      -47.647     135.966    -115.180
  P      -47.362     137.450    -115.714
  C      -48.244     138.907    -117.670
  O      -48.148     137.606    -117.107
  C      -49.574     139.098    -118.395
  O      -50.659     138.935    -117.442
  C      -49.751     140.473    -119.048
  O      -50.540     140.283    -120.231
  C      -50.568     141.238    -118.025
  O      -51.248     142.351    -118.599
  C      -51.477     140.123    -117.514
  N      -54.880     142.966    -114.968
  C      -54.585     142.881    -116.282
  N      -53.665     142.100    -116.885
  C      -53.013     141.349    -115.980
  C      -53.180     141.355    -114.606
  C      -54.172     142.211    -114.095
  N      -54.481     142.292    -112.758
  N      -52.308     140.470    -114.007
  C      -51.625     139.941    -115.002
  N      -52.034     140.424    -116.212
  O      -45.825     137.373    -116.157
  O      -47.587     138.538    -114.722
  H      -51.737     142.809    -117.889
  H      -45.279     137.917    -115.558
  H      -55.170     143.520    -116.938
  H      -50.832     139.213    -114.899
  H      -52.309     139.919    -118.200
  H      -49.913     141.613    -117.232
  H      -48.810     140.975    -119.298
  H      -49.678     138.303    -119.141
  H      -47.432     139.037    -118.392
  H      -55.293     142.824    -112.486
  H      -54.094     141.600    -112.123
  H      -48.130     139.657    -116.882
  P      -50.378     141.375    -121.394
  C      -51.522     143.638    -121.933
  O      -51.265     142.637    -120.969
  O      -51.190     140.732    -122.616
  O      -48.961     141.665    -121.766
  H      -50.823     141.050    -123.463
  H      -52.515     144.060    -121.750
  H      -51.489     143.241    -122.954
  H      -50.776     144.433    -121.834
  H      -48.866     134.715    -114.118
  H      -49.681     136.005    -114.970
  H      -48.773     136.353    -113.518

 3  4  5  6  7  8  9  10  11  12  22  25  29  30  31  32 0
 6-311+G(2d,p)
 ****
 33  36  37 0
 6-311+G(2d,p)
 ****
 1  2  13  14  15  16  17  18  19  20  21  23  24  26 0
 3-21G
 ****
 27  28  34  35  38  39  40  41  42  43  44  45  46  47  48 0
 3-21G
 ****


