%nproc=1
%NoSave
%Mem=1900MB
#P OB98/GEN NMR

erre ene a

0 1
  C      110.318    -117.614     294.746
  O      110.050    -116.347     294.139
  P      111.192    -115.226     294.266
  C      112.702    -115.579     292.189
  O      111.670    -114.810     292.790
  C      112.957    -115.154     290.737
  O      111.902    -115.638     289.859
  C      113.043    -113.639     290.550
  O      113.986    -113.385     289.506
  C      111.656    -113.276     290.048
  O      111.662    -112.023     289.371
  C      111.346    -114.502     289.168
  N      109.916    -114.670     288.904
  C      109.255    -113.608     288.286
  O      109.856    -112.552     288.052
  N      107.922    -113.742     287.988
  C      107.295    -114.824     288.325
  N      105.972    -114.896     288.004
  C      107.937    -115.948     289.029
  C      109.237    -115.806     289.280
  O      112.440    -116.038     294.856
  O      110.813    -114.085     295.154
  H      110.794    -111.915     288.925
  H      112.810    -115.562     295.626
  H      107.369    -116.822     289.308
  H      109.800    -116.578     289.790
  H      111.856    -114.418     288.200
  H      110.951    -113.215     290.886
  H      113.338    -113.099     291.456
  H      113.894    -115.619     290.405
  H      105.566    -114.110     287.512
  H      112.437    -116.638     292.210
  H      105.386    -115.685     288.218
  H      113.612    -115.483     292.792
  P      115.491    -113.012     289.914
  C      116.726    -115.034     288.918
  O      116.401    -113.663     288.762
  O      115.751    -114.022     291.135
  O      115.794    -111.602     290.298
  H      116.625    -113.844     291.526
  H      117.238    -115.376     288.014
  H      115.820    -115.627     289.059
  H      117.397    -115.162     289.769
  H      109.485    -118.267     294.591
  H      110.476    -117.480     295.796
  H      111.194    -118.043     294.305

 3  4  5  6  7  8  9  10  11  12  13  21  23  27  28  29  30  32 0
 6-311+G(2d,p)
 ****
 34  35 0
 6-311+G(2d,p)
 ****
 1  2  14  15  16  17  18  19  20  22  24  25  26 0
 3-21G
 ****
 31  33  36  37  38  39  40  41  42  43  44  45  46 0
 3-21G
 ****


