%nproc=1
%NoSave
%Mem=1900MB
#P OB98/GEN NMR

erre ene a

0 1
  C     -908.221    1017.451     285.571
  O     -907.375    1016.461     286.174
  P     -908.016    1015.400     287.219
  C     -906.808    1013.212     286.418
  O     -906.971    1014.210     287.429
  C     -905.347    1012.817     286.281
  O     -904.574    1013.888     285.705
  C     -904.648    1012.495     287.614
  O     -905.012    1011.200     288.099
  C     -903.182    1012.596     287.212
  O     -902.719    1011.390     286.604
  C     -903.213    1013.755     286.185
  N     -902.704    1015.015     286.750
  C     -901.337    1015.186     286.711
  O     -900.550    1014.336     286.324
  N     -900.872    1016.389     287.214
  C     -901.644    1017.369     287.780
  O     -901.178    1018.407     288.228
  C     -903.090    1017.092     287.855
  C     -903.542    1015.931     287.355
  O     -909.139    1014.695     286.325
  O     -908.594    1015.990     288.454
  H     -903.278    1011.200     285.839
  H     -909.862    1014.381     286.898
  H     -899.883    1016.546     287.187
  H     -903.728    1017.827     288.319
  H     -904.609    1015.706     287.384
  H     -902.616    1013.492     285.301
  H     -902.524    1012.794     288.086
  H     -904.881    1013.269     288.346
  H     -905.283    1011.949     285.598
  H     -907.167    1013.601     285.470
  H     -907.432    1012.336     286.687
  P     -905.470    1011.125     289.632
  C     -907.769    1009.974     289.104
  O     -906.486    1009.877     289.693
  O     -906.422    1012.427     289.743
  O     -904.329    1011.104     290.581
  H     -906.865    1012.602     288.915
  H     -907.745    1010.582     288.199
  H     -908.477    1010.388     289.824
  H     -908.088    1008.953     288.824
  H     -907.640    1018.064     284.913
  H     -908.657    1018.061     286.335
  H     -908.997    1016.967     285.015

 3  4  5  6  7  8  9  10  11  12  13  23  28  29  30  31  32 0
 6-311+G(2d,p)
 ****
 33  34 0
 6-311+G(2d,p)
 ****
 1  2  14  15  16  17  18  19  20  21  22  24  25  26 0
 3-21G
 ****
 27  35  36  37  38  39  40  41  42  43  44  45 0
 3-21G
 ****


