%nproc=1
%NoSave
%Mem=1900MB
#P OB98/GEN NMR

erre ene a

0 1
  C     -455.290      23.419     421.672
  O     -454.781      24.142     420.568
  H     -454.845      23.827     422.586
  H     -455.000      22.368     421.576
  H     -456.378      23.505     421.737
  P     -455.563      24.078     419.172
  C     -453.401      23.209     418.068
  O     -454.478      24.142     417.995
  C     -452.079      23.828     417.594
  O     -452.190      24.228     416.213
  C     -451.711      25.101     418.376
  O     -451.043      24.877     419.602
  C     -450.818      25.825     417.381
  O     -449.461      25.361     417.482
  C     -451.416      25.428     416.024
  N     -451.687      30.209     414.220
  C     -450.612      29.554     414.799
  N     -449.486      30.288     414.978
  N     -450.646      28.307     415.195
  C     -451.869      27.727     415.035
  C     -453.010      28.278     414.487
  C     -452.938      29.643     414.010
  O     -453.859      30.274     413.496
  N     -454.050      27.381     414.503
  C     -453.562      26.332     415.125
  N     -452.237      26.484     415.447
  O     -456.275      25.515     419.071
  O     -456.572      22.971     419.061
  H     -449.073      25.717     418.302
  H     -457.073      25.453     418.512
  H     -451.586      31.166     413.913
  H     -454.129      25.421     415.336
  H     -450.635      25.199     415.293
  H     -450.801      26.908     417.564
  H     -449.450      31.279     414.801
  H     -452.608      25.711     418.535
  H     -448.796      29.932     415.629
  H     -451.289      23.079     417.647
  H     -453.663      22.370     417.429
  H     -453.292      22.824     419.083
  P     -451.865      24.966     420.975
  C     -450.373      26.898     421.886
  O     -450.861      25.590     422.075
  O     -451.986      23.430     421.410
  O     -453.185      25.631     420.885
  H     -452.846      23.073     421.137
  H     -449.726      27.158     422.697
  H     -451.194      27.583     421.851
  H     -449.829      26.946     420.966

 6  7  8  9  10  11  12  13  14  15  26  29  33  34 0
 6-311+G(2d,p)
 ****
 36  38  39  40  41 0
 6-311+G(2d,p)
 ****
 1  2  3  4  5  16  17  18  19  20  21  22  23  24  25 0
 3-21G
 ****
 27  28  30  31  32  35  37  42  43  44  45  46  47 0
 3-21G
 ****
 48  49 0
 3-21G
 ****


