%nproc=1
%NoSave
%Mem=1900MB
#P OB98/GEN NMR

erre ene a

0 1
  C       89.960    -223.543    -286.995
  O       90.154    -224.662    -287.836
  H       89.742    -223.901    -285.986
  H       89.120    -222.949    -287.350
  H       90.867    -222.930    -286.962
  P       90.506    -224.348    -289.373
  C       91.968    -225.678    -291.071
  O       91.043    -225.722    -289.999
  C       92.678    -227.029    -291.224
  O       93.622    -227.190    -290.122
  C       91.735    -228.238    -291.178
  O       92.320    -229.290    -291.964
  C       91.782    -228.611    -289.703
  O       91.239    -229.897    -289.492
  C       93.278    -228.420    -289.441
  N       94.565    -231.078    -285.267
  C       94.358    -231.454    -286.545
  N       94.032    -230.689    -287.606
  C       93.934    -229.395    -287.246
  C       94.127    -228.854    -285.991
  C       94.454    -229.761    -284.960
  N       94.658    -229.373    -283.655
  N       93.944    -227.477    -286.005
  C       93.650    -227.202    -287.257
  N       93.622    -228.322    -288.045
  O       91.821    -223.435    -289.266
  O       89.427    -223.678    -290.157
  H       91.752    -230.579    -289.975
  H       91.573    -222.491    -289.301
  H       94.466    -232.523    -286.742
  H       93.431    -226.210    -287.651
  H       93.873    -229.225    -289.884
  H       91.186    -227.910    -289.103
  H       90.731    -228.024    -291.554
  H       93.272    -227.023    -292.152
  H       92.706    -224.889    -290.863
  H       91.443    -225.434    -292.004
  H       94.872    -230.090    -282.973
  H       94.563    -228.399    -283.408
  P       91.791    -229.547    -293.464
  C       92.899    -230.385    -295.685
  O       92.900    -230.387    -294.262
  O       91.934    -228.090    -294.118
  O       90.385    -230.039    -293.575
  H       91.281    -227.991    -294.828
  H       93.703    -230.994    -296.043
  H       93.025    -229.384    -296.040
  H       91.969    -230.776    -296.042

 6  7  8  9  10  11  12  13  14  15  25  28  32  33  34  35 0
 6-311+G(2d,p)
 ****
 36  37  40 0
 6-311+G(2d,p)
 ****
 1  2  3  4  5  16  17  18  19  20  21  22  23  24 0
 3-21G
 ****
 26  27  29  30  31  38  39 41  42  43  44  45  46  47  48 0
 3-21G
 ****


