%nproc=1
%NoSave
%Mem=1900MB
#P OB98/GEN NMR

erre ene a

0 1
  C      381.996    -625.791     263.249
  O      382.580    -624.924     262.298
  P      382.459    -625.358     260.748
  C      383.588    -627.253     259.350
  O      383.186    -626.788     260.625
  C      385.002    -627.830     259.438
  O      385.007    -629.030     260.246
  C      385.606    -628.221     258.100
  O      386.147    -627.082     257.447
  C      386.658    -629.240     258.520
  O      387.856    -628.581     258.988
  C      385.952    -629.971     259.670
  N      386.551    -634.763     258.153
  C      387.487    -633.761     258.323
  N      388.776    -634.101     258.099
  N      387.192    -632.540     258.682
  C      385.859    -632.344     258.861
  C      384.835    -633.250     258.710
  C      385.179    -634.610     258.358
  O      384.401    -635.558     258.292
  N      383.613    -632.673     258.957
  C      383.902    -631.431     259.286
  N      385.254    -631.185     259.266
  O      383.464    -624.350     260.010
  O      381.070    -625.317     260.185
  H      388.353    -628.252     258.226
  H      382.967    -623.604     259.617
  H      386.841    -635.690     257.883
  H      383.186    -630.687     259.564
  H      386.652    -630.257     260.474
  H      386.964    -629.890     257.689
  H      389.079    -635.007     257.788
  H      384.858    -628.711     257.461
  H      389.480    -633.376     258.204
  H      385.637    -627.094     259.951
  H      383.589    -626.414     258.640
  H      382.880    -628.010     259.002
  P      385.843    -626.923     255.874
  C      386.781    -628.025     253.717
  O      386.601    -628.119     255.122
  O      386.699    -625.613     255.472
  O      384.404    -626.742     255.529
  H      386.209    -625.107     254.802
  H      387.694    -628.562     253.447
  H      386.860    -626.986     253.389
  H      385.915    -628.493     253.221
  H      382.144    -625.394     264.232
  H      382.455    -626.755     263.181
  H      380.948    -625.880     263.054

 3  4  5  6  7  8  9  10  11  12  23  26  30  31 0
 6-311+G(2d,p)
 ****
 33  35  36  37  38 0
 6-311+G(2d,p)
 ****
 1  2  13  14  15  16  17  18  19  20  21  22  24  25 0
 3-21G
 ****
 27  28  29  32  34  39  40  41  42  43  44  45  46  47  48  49 0
 3-21G
 ****


