%nproc=1
%NoSave
%Mem=1900MB
#P OB98/GEN NMR

erre ene a

0 1
  C      199.331    -231.850      37.318
  O      198.783    -232.892      36.537
  H      199.648    -232.258      38.282
  H      198.581    -231.072      37.496
  H      200.200    -231.415      36.813
  P      198.161    -232.468      35.118
  C      196.079    -231.532      36.382
  O      197.156    -231.271      35.493
  C      194.822    -230.821      35.888
  O      195.096    -229.427      35.619
  C      194.260    -231.385      34.586
  O      193.520    -232.580      34.776
  C      193.372    -230.231      34.152
  O      192.169    -230.224      34.940
  C      194.267    -229.018      34.496
  N      195.101    -228.582      33.375
  C      194.433    -228.220      32.201
  O      193.206    -228.283      32.132
  N      195.175    -227.822      31.112
  C      196.469    -227.782      31.190
  N      197.152    -227.399      30.079
  C      197.212    -228.139      32.412
  C      196.476    -228.527      33.452
  O      197.160    -233.668      34.771
  O      199.143    -232.151      34.038
  H      191.851    -231.144      34.980
  H      196.631    -233.440      33.969
  H      198.292    -228.101      32.427
  H      196.953    -228.806      34.384
  H      193.662    -228.168      34.833
  H      193.072    -230.293      33.105
  H      195.045    -231.525      33.835
  H      194.075    -230.857      36.693
  H      196.620    -227.219      29.236
  H      196.355    -231.163      37.375
  H      198.156    -227.508      29.989
  H      195.887    -232.608      36.438
  P      193.612    -233.703      33.631
  C      191.556    -232.660      32.432
  O      192.903    -233.099      32.324
  O      192.575    -234.813      34.129
  O      194.983    -234.268      33.410
  H      192.910    -235.712      33.952
  H      191.226    -232.286      31.485
  H      191.492    -231.883      33.164
  H      190.936    -233.481      32.728

 6  7  8  9  10  11  12  13  14  15  16  26  30  31  32  33  35 0
 6-311+G(2d,p)
 ****
 37  38 0
 6-311+G(2d,p)
 ****
 1  2  3  4  5  17  18  19  20  21  22  23  24  25 0
 3-21G
 ****
 27  28  29  34  36  39  40  41  42  43  44  45  46 0
 3-21G
 ****


