%nproc=1
%NoSave
%Mem=1900MB
#P OB98/GEN NMR

erre ene a

0 1
  C      -74.397    -673.663     350.628
  O      -73.937    -673.031     349.449
  H      -74.427    -674.744     350.456
  H      -75.403    -673.313     350.878
  H      -73.709    -673.457     351.455
  P      -73.842    -671.432     349.479
  C      -73.887    -671.241     346.892
  O      -74.554    -670.965     348.118
  C      -74.885    -671.303     345.738
  O      -75.692    -672.487     345.841
  C      -75.844    -670.125     345.686
  O      -75.250    -669.022     345.031
  C      -76.971    -670.716     344.852
  O      -76.628    -670.654     343.451
  C      -77.011    -672.183     345.312
  N      -81.959    -673.202     346.247
  C      -81.330    -672.753     345.137
  N      -80.020    -672.454     344.972
  C      -79.345    -672.665     346.117
  C      -79.851    -673.108     347.326
  C      -81.227    -673.387     347.364
  N      -81.869    -673.836     348.498
  N      -78.853    -673.200     348.275
  C      -77.746    -672.870     347.633
  N      -78.002    -672.501     346.330
  O      -72.486    -670.866     349.741
  O      -74.950    -671.078     350.585
  H      -76.634    -669.704     343.205
  H      -75.728    -671.652     350.478
  H      -81.957    -672.617     344.255
  H      -76.752    -672.903     348.049
  H      -77.185    -672.866     344.480
  H      -77.913    -670.183     344.972
  H      -76.232    -669.862     346.681
  H      -74.305    -671.379     344.802
  H      -73.347    -672.190     346.972
  H      -82.876    -673.824     348.498
  H      -81.345    -673.855     349.359
  H      -73.150    -670.444     346.731
  P      -75.933    -667.569     345.062
  C      -74.453    -666.991     343.044
  O      -75.767    -666.995     343.571
  O      -75.449    -666.676     346.159
  O      -77.494    -667.874     345.156
  H      -77.976    -667.074     345.446
  H      -74.468    -666.589     342.052
  H      -74.076    -667.992     343.018
  H      -73.822    -666.388     343.664

 6  7  8  9  10  11  12  13  14  15  25  28  32  33  34  35 0
 6-311+G(2d,p)
 ****
 36  39  40 0
 6-311+G(2d,p)
 ****
 1  2  3  4  5  16  17  18  19  20  21  22  23  24 0
 3-21G
 ****
 26  27  29  30  31  37  38  41  42  43  44  45  46  47 0
 3-21G
 ****
 48 0
 3-21G
 ****


