%nproc=1
%NoSave
%Mem=1900MB
#P OB98/GEN NMR

erre ene a

0 1
  C      450.019     188.627     569.217
  O      449.272     187.467     568.903
  H      450.411     189.055     568.290
  H      450.863     188.373     569.870
  H      449.382     189.372     569.704
  P      448.623     186.623     570.102
  C      450.550     184.931     569.783
  O      449.807     185.726     570.706
  C      450.253     183.445     570.004
  O      450.830     182.653     568.949
  C      450.810     182.883     571.316
  O      449.944     183.198     572.401
  C      450.826     181.398     570.995
  O      449.488     180.866     571.083
  C      451.294     181.394     569.523
  N      455.250     178.270     568.929
  C      453.932     177.990     569.229
  N      453.634     176.678     569.431
  N      452.996     178.892     569.338
  C      453.452     180.161     569.182
  C      454.745     180.571     568.901
  C      455.755     179.550     568.714
  O      456.931     179.758     568.431
  N      454.840     181.936     568.911
  C      453.615     182.354     569.144
  N      452.731     181.315     569.325
  O      447.382     185.849     569.772
  O      448.368     187.704     571.251
  H      449.520     179.953     570.745
  H      447.470     188.084     571.191
  H      455.930     177.537     568.866
  H      453.304     183.386     569.184
  H      450.842     180.591     568.946
  H      451.453     180.822     571.680
  H      454.334     175.958     569.508
  H      451.834     183.218     571.503
  H      452.681     176.459     569.712
  H      449.160     183.313     569.953
  H      451.612     185.133     569.957
  H      450.303     185.205     568.755
  P      450.522     183.534     573.865
  C      449.806     181.265     574.892
  O      450.878     182.113     574.513
  O      449.638     184.407     574.695
  O      451.970     184.145     573.583
  H      451.949     185.127     573.388
  H      450.197     180.359     575.306
  H      449.211     181.037     574.033
  H      449.201     181.760     575.623

 6  7  8  9  10  11  12  13  14  15  26  29  33  34 0
 6-311+G(2d,p)
 ****
 36  38  39  40  41 0
 6-311+G(2d,p)
 ****
 1  2  3  4  5  16  17  18  19  20  21  22  23  24  25 0
 3-21G
 ****
 27  28  30  31  32  35  37  42  43  44  45  46  47 0
 3-21G
 ****
 48  49 0
 3-21G
 ****


