%nproc=1
%NoSave
%Mem=1900MB
#P OB98/GEN NMR

erre ene a

0 1
  C      676.206    -560.314    -924.747
  O      677.589    -560.370    -924.479
  P      678.233    -559.493    -923.297
  C      678.212    -561.317    -921.469
  O      679.018    -560.538    -922.362
  C      678.674    -562.770    -921.457
  O      678.336    -563.425    -922.693
  C      680.174    -562.943    -921.301
  O      680.574    -562.732    -919.956
  C      680.369    -564.365    -921.802
  O      680.080    -565.318    -920.769
  C      679.313    -564.453    -922.932
  N      679.914    -564.322    -924.256
  C      679.858    -565.459    -925.068
  O      679.360    -566.508    -924.643
  N      680.417    -565.412    -926.325
  C      681.003    -564.314    -926.722
  N      681.550    -564.329    -927.967
  C      681.113    -563.104    -925.887
  C      680.553    -563.184    -924.672
  O      677.283    -558.585    -922.600
  O      679.431    -558.721    -924.043
  H      679.237    -565.034    -920.354
  H      679.080    -557.988    -924.618
  H      681.622    -562.231    -926.254
  H      680.589    -562.336    -923.997
  H      678.778    -565.411    -922.888
  H      681.389    -564.552    -922.138
  H      680.699    -562.250    -921.968
  H      678.150    -563.280    -920.633
  H      681.475    -565.189    -928.499
  H      677.173    -561.270    -921.812
  H      682.053    -563.543    -928.365
  H      678.265    -560.878    -920.465
  P      682.128    -562.635    -919.581
  C      682.428    -560.135    -919.063
  O      682.296    -561.439    -918.518
  O      683.064    -562.603    -920.745
  O      682.374    -563.944    -918.688
  H      683.218    -564.361    -918.976
  H      682.200    -559.411    -918.271
  H      681.737    -559.991    -919.893
  H      683.450    -559.983    -919.407
  H      675.974    -560.965    -925.564
  H      675.932    -559.311    -925.001
  H      675.662    -560.624    -923.879

 3  4  5  6  7  8  9  10  11  12  13  23  27  28  29  30  32 0
 6-311+G(2d,p)
 ****
 34  35 0
 6-311+G(2d,p)
 ****
 1  2  14  15  16  17  18  19  20  21  22  24  25  26 0
 3-21G
 ****
 31  33  36  37  38  39  40  41  42  43  44  45  46 0
 3-21G
 ****


