%nproc=1
%NoSave
%Mem=1900MB
#P OB98/GEN NMR

erre ene a

0 1
  C      -49.095    -178.979     137.272
  O      -48.055    -178.136     137.773
  P      -47.347    -177.134     136.748
  C      -45.152    -178.254     135.907
  O      -46.518    -178.001     135.664
  C      -44.449    -178.859     134.682
  O      -44.455    -177.914     133.573
  C      -42.982    -179.242     134.918
  O      -42.658    -180.342     134.078
  C      -42.243    -178.011     134.421
  O      -40.864    -178.295     134.151
  C      -43.093    -177.654     133.195
  N      -39.765    -174.258     131.489
  C      -39.596    -175.585     131.825
  N      -38.348    -176.102     131.665
  N      -40.546    -176.353     132.298
  C      -41.742    -175.703     132.380
  C      -42.045    -174.410     132.088
  C      -40.980    -173.564     131.600
  O      -41.065    -172.387     131.305
  N      -43.364    -174.110     132.332
  C      -43.864    -175.262     132.764
  N      -42.940    -176.254     132.801
  O      -46.181    -176.459     137.650
  O      -48.252    -176.087     136.185
  H      -40.522    -177.556     133.602
  H      -46.406    -175.546     137.852
  H      -38.992    -173.719     131.159
  H      -44.887    -175.414     133.104
  H      -42.854    -178.278     132.335
  H      -42.279    -177.212     135.175
  H      -37.576    -175.580     131.258
  H      -42.733    -179.488     135.956
  H      -38.210    -177.084     131.875
  H      -45.028    -179.742     134.355
  H      -45.040    -178.957     136.767
  H      -44.660    -177.329     136.232
  P      -42.637    -181.786     134.762
  C      -40.327    -181.780     135.963
  O      -41.744    -181.657     136.083
  O      -41.692    -182.657     133.762
  O      -43.971    -182.412     134.938
  H      -41.917    -183.604     133.830
  H      -39.870    -180.778     136.024
  H      -40.047    -182.267     135.032
  H      -39.970    -182.384     136.819
  H      -49.472    -179.590     138.065
  H      -48.705    -179.603     136.495
  H      -49.886    -178.375     136.880

 3  4  5  6  7  8  9  10  11  12  23  26  30  31 0
 6-311+G(2d,p)
 ****
 33  35  36  37  38 0
 6-311+G(2d,p)
 ****
 1  2  13  14  15  16  17  18  19  20  21  22  24  25 0
 3-21G
 ****
 27  28  29  32  34  39  40  41  42  43  44  45  46  47  48  49 0
 3-21G
 ****


