%nproc=1
%NoSave
%Mem=1900MB
#P OB98/GEN NMR

erre ene a

0 1
  C      -35.236     289.912    -163.774
  O      -34.275     289.050    -163.196
  H      -35.546     289.498    -164.737
  H      -34.802     290.903    -163.940
  H      -36.111     289.993    -163.122
  P      -33.647     289.522    -161.796
  C      -31.366     290.085    -162.892
  O      -32.059     289.315    -161.920
  C      -29.994     289.477    -163.176
  O      -29.108     289.671    -162.053
  C      -30.017     287.981    -163.468
  O      -30.335     287.732    -164.827
  C      -28.591     287.588    -163.113
  O      -27.683     287.913    -164.189
  C      -28.310     288.463    -161.882
  N      -28.524     289.234    -156.895
  C      -28.089     290.064    -157.909
  N      -27.614     291.276    -157.540
  N      -28.106     289.741    -159.175
  C      -28.553     288.481    -159.397
  C      -29.008     287.559    -158.478
  C      -29.034     287.955    -157.086
  O      -29.485     287.295    -156.150
  N      -29.393     286.395    -159.092
  C      -29.138     286.599    -160.372
  N      -28.622     287.848    -160.606
  O      -34.091     288.364    -160.779
  O      -34.090     290.862    -161.313
  H      -27.663     288.880    -164.308
  H      -34.304     288.770    -159.917
  H      -28.520     289.550    -155.942
  H      -29.319     285.885    -161.165
  H      -27.260     288.775    -161.832
  H      -28.499     286.514    -162.947
  H      -27.310     291.465    -156.594
  H      -30.713     287.460    -162.797
  H      -27.228     291.853    -158.277
  H      -29.559     290.025    -164.024
  H      -31.240     291.103    -162.511
  H      -31.955     290.119    -163.816
  P      -31.671     286.913    -165.156
  C      -30.575     284.731    -166.046
  O      -31.342     285.889    -166.348
  O      -32.602     288.014    -165.856
  O      -32.347     286.319    -163.967
  H      -33.299     288.299    -165.233
  H      -30.440     284.151    -166.935
  H      -31.088     284.145    -165.312
  H      -29.620     285.025    -165.664

 6  7  8  9  10  11  12  13  14  15  26  29  33  34 0
 6-311+G(2d,p)
 ****
 36  38  39  40  41 0
 6-311+G(2d,p)
 ****
 1  2  3  4  5  16  17  18  19  20  21  22  23  24  25 0
 3-21G
 ****
 27  28  30  31  32  35  37  42  43  44  45  46  47 0
 3-21G
 ****
 48  49 0
 3-21G
 ****


