%nproc=1
%NoSave
%Mem=1900MB
#P OB98/GEN NMR

erre ene a

0 1
  C       60.419     257.094      69.914
  O       60.571     258.393      70.453
  H       60.458     256.369      70.730
  H       61.230     256.884      69.211
  H       59.454     257.006      69.406
  P       60.524     259.609      69.407
  C       63.081     259.455      68.922
  O       61.760     259.382      68.409
  C       64.090     259.600      67.776
  O       64.372     258.276      67.233
  C       63.587     260.461      66.606
  O       64.729     261.070      65.980
  C       62.998     259.408      65.680
  O       62.765     259.937      64.395
  C       64.063     258.325      65.821
  N       63.422     255.341      61.720
  C       63.941     256.580      61.858
  N       64.090     257.305      62.984
  C       63.658     256.618      64.054
  C       63.112     255.342      64.070
  C       62.995     254.695      62.830
  N       62.462     253.435      62.685
  N       62.783     254.972      65.361
  C       63.123     256.003      66.108
  N       63.646     257.022      65.362
  O       60.972     260.868      70.287
  O       59.209     259.831      68.738
  H       62.496     259.230      63.772
  H       60.183     261.339      70.618
  H       64.279     257.055      60.940
  H       63.003     256.068      67.183
  H       64.985     258.587      65.288
  H       62.032     259.057      66.054
  H       62.881     261.238      66.911
  H       65.035     259.987      68.178
  H       63.288     258.539      69.485
  H       63.167     260.315      69.591
  H       62.399     253.047      61.758
  H       62.125     252.948      63.502
  P       65.003     262.637      66.208
  C       65.318     263.439      63.737
  O       64.513     263.437      64.906
  O       66.599     262.720      66.063
  O       64.562     263.190      67.523
  H       66.934     263.469      66.589
  H       64.839     264.018      62.975
  H       65.449     262.434      63.392
  H       66.273     263.866      63.962

 6  7  8  9  10  11  12  13  14  15  25  28  32  33  34  35 0
 6-311+G(2d,p)
 ****
 36  37  40 0
 6-311+G(2d,p)
 ****
 1  2  3  4  5  16  17  18  19  20  21  22  23  24 0
 3-21G
 ****
 26  27  29  30  31  38  39 41  42  43  44  45  46  47  48 0
 3-21G
 ****


