%nproc=1
%NoSave
%Mem=1900MB
#P OB98/GEN NMR

erre ene a

0 1
  C      222.898    -442.291     113.566
  O      222.441    -441.600     114.712
  H      223.162    -441.559     112.798
  H      222.102    -442.936     113.180
  H      223.781    -442.888     113.806
  P      222.169    -442.483     116.026
  C      222.525    -440.329     117.486
  O      221.714    -441.444     117.159
  C      221.674    -439.194     118.059
  O      220.769    -438.728     117.029
  C      220.835    -439.605     119.270
  O      220.766    -438.497     120.170
  C      219.459    -439.854     118.673
  O      218.423    -439.738     119.644
  C      219.425    -438.803     117.552
  N      218.456    -439.135     116.508
  C      217.121    -438.824     116.771
  O      216.801    -438.310     117.845
  N      216.169    -439.138     115.836
  C      216.512    -439.768     114.756
  N      215.518    -440.075     113.879
  C      217.904    -440.156     114.457
  C      218.817    -439.801     115.361
  O      223.655    -442.892     116.460
  O      221.249    -443.638     115.814
  H      218.554    -440.433     120.326
  H      224.286    -442.154     116.420
  H      218.138    -440.691     113.548
  H      219.863    -440.040     115.219
  H      219.170    -437.815     117.959
  H      219.410    -440.863     118.251
  H      221.237    -440.481     119.788
  H      222.334    -438.355     118.305
  H      214.576    -439.812     114.134
  H      223.056    -439.972     116.598
  H      215.661    -440.611     113.036
  H      223.268    -440.655     118.220
  P      221.689    -438.485     121.477
  C      222.000    -435.916     121.486
  O      221.557    -437.062     122.204
  O      223.083    -438.977     121.289
  O      220.891    -439.454     122.480
  H      221.547    -440.008     122.946
  H      221.855    -435.042     122.085
  H      221.439    -435.824     120.579
  H      223.039    -436.020     121.254

 6  7  8  9  10  11  12  13  14  15  16  26  30  31  32  33  35 0
 6-311+G(2d,p)
 ****
 37  38 0
 6-311+G(2d,p)
 ****
 1  2  3  4  5  17  18  19  20  21  22  23  24  25 0
 3-21G
 ****
 27  28  29  34  36  39  40  41  42  43  44  45  46 0
 3-21G
 ****


