%nproc=1
%NoSave
%Mem=1900MB
#P OB98/GEN NMR

erre ene a

0 1
  C      118.651     111.910     314.996
  O      117.409     112.601     315.034
  P      116.142     111.907     314.324
  C      115.310     111.614     311.849
  O      116.291     112.120     312.745
  C      115.813     111.657     310.396
  O      116.003     113.034     310.018
  C      117.151     110.974     310.151
  O      117.280     110.712     308.749
  C      118.132     112.059     310.552
  O      119.431     111.818     310.021
  C      117.427     113.342     310.046
  N      117.681     114.534     310.882
  C      118.477     115.552     310.359
  O      118.987     115.532     309.245
  N      118.713     116.617     311.190
  C      118.213     116.774     312.459
  O      118.515     117.705     313.189
  C      117.263     115.742     312.902
  C      117.061     114.681     312.111
  O      114.912     112.841     314.733
  O      115.936     110.484     314.741
  H      119.866     111.168     310.631
  H      114.375     112.414     315.412
  H      119.333     117.334     310.857
  H      116.788     115.854     313.865
  H      116.380     113.898     312.436
  H      117.751     113.592     309.018
  H      118.221     112.094     311.640
  H      117.312     110.049     310.723
  H      115.034     111.237     309.742
  H      114.383     112.205     311.949
  H      115.057     110.578     312.122
  P      118.046     109.370     308.303
  C      120.499     108.619     308.136
  O      119.617     109.713     308.342
  O      117.548     108.722     307.056
  O      117.862     108.411     309.578
  H      118.019     107.490     309.316
  H      121.413     109.001     307.672
  H      120.057     107.854     307.476
  H      120.744     108.167     309.101
  H      119.396     112.487     315.504
  H      118.946     111.763     313.978
  H      118.546     110.960     315.478

 3  4  5  6  7  8  9  10  11  12  13  23  28  29  30  31  32 0
 6-311+G(2d,p)
 ****
 33  34 0
 6-311+G(2d,p)
 ****
 1  2  14  15  16  17  18  19  20  21  22  24  25  26  27 0
 3-21G
 ****
 35  36  37  38  39  40  41  42  43  44  45 0
 3-21G
 ****


