%nproc=1
%NoSave
%Mem=1900MB
#P OB98/GEN NMR

erre ene a

0 1
  C     -134.914    -410.361     190.232
  O     -134.834    -409.388     189.213
  H     -135.510    -409.957     191.056
  H     -133.915    -410.596     190.608
  H     -135.398    -411.272     189.868
  P     -134.171    -409.792     187.811
  C     -136.155    -409.515     186.181
  O     -134.944    -408.964     186.678
  C     -137.015    -408.433     185.521
  O     -137.674    -407.661     186.573
  C     -136.219    -407.431     184.657
  O     -137.102    -406.986     183.615
  C     -135.957    -406.329     185.667
  O     -135.470    -405.153     185.070
  C     -137.331    -406.276     186.346
  N     -137.385    -405.522     187.593
  C     -137.344    -404.133     187.511
  O     -137.272    -403.496     186.462
  N     -137.390    -403.469     188.709
  C     -137.484    -404.038     189.944
  O     -137.552    -403.388     190.980
  C     -137.513    -405.508     189.964
  C     -137.471    -406.171     188.808
  O     -134.045    -411.254     187.549
  O     -132.737    -409.076     187.854
  H     -132.049    -409.735     188.071
  H     -134.848    -405.392     184.350
  H     -137.366    -402.459     188.669
  H     -137.579    -405.992     190.929
  H     -137.502    -407.256     188.792
  H     -138.075    -405.869     185.651
  H     -135.185    -406.647     186.370
  H     -135.321    -407.867     184.214
  H     -137.808    -408.916     184.937
  H     -136.699    -409.959     187.021
  H     -135.920    -410.302     185.455
  P     -136.812    -407.219     182.053
  C     -138.949    -408.608     181.599
  O     -138.220    -407.418     181.308
  O     -135.828    -408.307     181.776
  O     -136.284    -405.809     181.508
  H     -135.716    -405.952     180.728
  H     -139.861    -408.613     181.039
  H     -139.172    -408.643     182.645
  H     -138.361    -409.461     181.331

 6  7  8  9  10  11  12  13  14  15  16  27  31  32  33  34  35 0
 6-311+G(2d,p)
 ****
 36  37 0
 6-311+G(2d,p)
 ****
 1  2  3  4  5  17  18  19  20  21  22  23  24  25 0
 3-21G
 ****
 26  28  29  30  38  39  40  41  42  43  44  45 0
 3-21G
 ****


