%nproc=1
%NoSave
%Mem=1900MB
#P OB98/GEN NMR

erre ene a

0 1
  C      598.983     499.079     539.667
  O      597.689     499.407     539.199
  H      598.990     499.059     540.764
  H      599.255     498.088     539.297
  H      599.712     499.807     539.306
  P      597.087     500.821     539.669
  C      596.288     501.755     541.960
  O      596.703     500.620     541.216
  C      595.769     501.302     543.327
  O      594.594     500.467     543.152
  C      596.760     500.463     544.118
  O      597.717     501.255     544.804
  C      595.831     499.748     545.080
  O      595.442     500.649     546.131
  C      594.630     499.423     544.173
  N      592.989     494.575     544.269
  C      592.666     495.653     545.024
  N      593.132     496.914     544.927
  C      594.018     497.010     543.913
  C      594.434     496.007     543.061
  C      593.887     494.731     543.276
  N      594.240     493.625     542.531
  N      595.372     496.487     542.161
  C      595.488     497.766     542.455
  N      594.717     498.135     543.523
  O      595.656     500.882     538.950
  O      597.930     502.017     539.388
  H      596.264     500.992     546.539
  H      595.297     501.788     538.984
  H      591.933     495.483     545.806
  H      596.132     498.475     541.932
  H      593.675     499.459     544.718
  H      596.297     498.883     545.561
  H      597.256     499.712     543.479
  H      595.458     502.189     543.896
  H      595.489     502.265     541.414
  H      593.905     492.730     542.855
  H      595.010     493.694     541.883
  H      597.129     502.435     542.095
  P      598.820     500.490     545.689
  C      598.897     499.542     548.123
  O      598.088     500.085     547.068
  O      599.813     501.663     546.126
  O      599.524     499.380     544.984
  H      600.723     501.332     546.210
  H      598.280     499.322     548.969
  H      599.644     500.255     548.402
  H      599.370     498.644     547.784

 6  7  8  9  10  11  12  13  14  15  25  28  32  33  34  35 0
 6-311+G(2d,p)
 ****
 36  39  40 0
 6-311+G(2d,p)
 ****
 1  2  3  4  5  16  17  18  19  20  21  22  23  24 0
 3-21G
 ****
 26  27  29  30  31  37  38  41  42  43  44  45  46  47 0
 3-21G
 ****
 48 0
 3-21G
 ****


