%nproc=1
%NoSave
%Mem=1900MB
#P OB98/GEN NMR

erre ene a

0 1
  C     -177.649     486.756    -173.475
  O     -176.747     486.036    -172.660
  P     -177.248     484.857    -171.702
  C     -175.738     483.174    -172.941
  O     -177.064     483.483    -172.523
  C     -175.310     481.807    -172.378
  O     -176.278     480.796    -172.814
  C     -173.916     481.368    -172.873
  O     -173.009     481.000    -171.831
  C     -174.242     480.267    -173.872
  O     -173.167     479.380    -174.129
  C     -175.513     479.664    -173.260
  N     -176.253     478.830    -174.209
  C     -175.751     477.562    -174.464
  O     -174.742     477.091    -173.942
  N     -176.418     476.826    -175.414
  C     -177.441     477.275    -176.198
  O     -177.932     476.602    -177.096
  C     -177.904     478.648    -175.909
  C     -177.318     479.345    -174.930
  O     -178.610     485.047    -171.112
  O     -176.078     484.752    -170.608
  H     -172.892     478.989    -173.283
  H     -175.197     484.550    -170.973
  H     -176.064     475.901    -175.611
  H     -178.708     479.032    -176.525
  H     -177.637     480.361    -174.693
  H     -175.278     479.052    -172.385
  H     -174.495     480.751    -174.829
  H     -173.403     482.189    -173.393
  H     -175.338     481.872    -171.284
  H     -175.059     483.947    -172.563
  H     -175.679     483.186    -174.035
  P     -171.428     480.802    -172.007
  C     -170.896     483.338    -172.300
  O     -170.865     482.037    -172.866
  O     -171.005     479.450    -172.499
  O     -170.843     481.080    -170.547
  H     -170.017     480.568    -170.418
  H     -170.975     484.069    -173.115
  H     -169.960     483.513    -171.758
  H     -171.745     483.460    -171.625
  H     -177.113     487.495    -174.033
  H     -178.381     487.235    -172.859
  H     -178.136     486.083    -174.149

 3  4  5  6  7  8  9  10  11  12  13  23  28  29  30  31  32 0
 6-311+G(2d,p)
 ****
 33  34 0
 6-311+G(2d,p)
 ****
 1  2  14  15  16  17  18  19  20  21  22  24  25  26  27 0
 3-21G
 ****
 35  36  37  38  39  40  41  42  43  44  45 0
 3-21G
 ****


