%nproc=1
%NoSave
%Mem=1900MB
#P OB98/GEN NMR

erre ene a

0 1
  C     -101.142     217.267     100.403
  O     -101.326     216.616      99.162
  H     -100.930     218.323     100.215
  H     -100.294     216.832     100.937
  H     -102.044     217.195     101.017
  P     -101.783     215.080      99.154
  C      -99.783     214.172     100.505
  O     -100.445     214.199      99.245
  C      -98.665     213.133     100.482
  O      -97.976     213.111     101.753
  C      -99.155     211.707     100.249
  O      -99.492     211.505      98.891
  C      -97.951     210.917     100.745
  O      -96.913     210.883      99.752
  C      -97.509     211.759     101.966
  N      -98.005     211.223     103.235
  C      -97.696     209.893     103.501
  O      -97.049     209.183     102.734
  N      -98.200     209.387     104.671
  C      -99.037     210.041     105.530
  O      -99.639     209.484     106.444
  C      -99.268     211.464     105.235
  C      -98.762     211.978     104.110
  O     -102.724     214.688      98.066
  O     -102.442     214.877     100.602
  H     -103.414     214.907     100.519
  H      -97.229     210.290      99.042
  H      -98.021     208.408     104.852
  H      -99.875     212.036     105.926
  H      -98.944     213.016     103.857
  H      -96.413     211.806     102.020
  H      -98.202     209.881     100.979
  H     -100.011     211.491     100.900
  H      -97.942     213.426      99.710
  H     -100.514     213.905     101.277
  H      -99.384     215.169     100.721
  P     -101.009     211.255      98.443
  C     -101.043     208.914      99.486
  O     -101.230     209.673      98.300
  O     -101.459     212.054      97.265
  O     -101.870     211.624      99.744
  H     -102.556     212.275      99.499
  H     -101.214     207.879      99.278
  H     -101.732     209.246     100.234
  H     -100.042     209.046      99.840

 6  7  8  9  10  11  12  13  14  15  16  27  31  32  33  34  35 0
 6-311+G(2d,p)
 ****
 36  37 0
 6-311+G(2d,p)
 ****
 1  2  3  4  5  17  18  19  20  21  22  23  24  25 0
 3-21G
 ****
 26  28  29  30  38  39  40  41  42  43  44  45 0
 3-21G
 ****


