%nproc=1
%NoSave
%Mem=1900MB
#P OB98/GEN NMR

erre ene a

0 1
  C     -246.370    -186.820     -28.949
  O     -246.464    -188.128     -29.474
  H     -247.308    -186.581     -28.441
  H     -246.215    -186.096     -29.752
  H     -245.555    -186.754     -28.223
  P     -245.208    -188.722     -30.275
  C     -243.799    -187.523     -32.088
  O     -245.097    -187.788     -31.579
  C     -243.830    -186.303     -33.005
  O     -244.427    -185.167     -32.345
  C     -242.462    -185.807     -33.457
  O     -241.846    -186.632     -34.431
  C     -242.846    -184.448     -34.012
  O     -243.480    -184.609     -35.293
  C     -243.856    -183.968     -32.943
  N     -243.237    -183.129     -31.918
  C     -243.677    -181.803     -31.844
  O     -244.537    -181.382     -32.617
  N     -243.107    -180.967     -30.913
  C     -242.164    -181.409     -30.142
  N     -241.630    -180.536     -29.243
  C     -241.655    -182.793     -30.200
  C     -242.230    -183.590     -31.097
  O     -245.236    -190.192     -30.540
  O     -243.933    -188.249     -29.431
  H     -243.876    -183.748     -35.523
  H     -243.127    -188.601     -29.880
  H     -240.847    -183.105     -29.555
  H     -241.906    -184.620     -31.204
  H     -244.681    -183.412     -33.405
  H     -241.994    -183.782     -34.155
  H     -241.797    -185.656     -32.598
  H     -244.471    -186.552     -33.861
  H     -241.999    -179.594     -29.227
  H     -243.457    -188.411     -32.629
  H     -240.842    -180.773     -28.657
  H     -243.108    -187.320     -31.266
  P     -240.268    -186.430     -34.665
  C     -238.812    -184.409     -35.451
  O     -240.097    -185.003     -35.372
  O     -239.937    -187.482     -35.820
  O     -239.416    -186.620     -33.449
  H     -239.557    -188.299     -35.444
  H     -238.885    -183.466     -35.951
  H     -238.155    -185.053     -35.997
  H     -238.427    -184.260     -34.464

 6  7  8  9  10  11  12  13  14  15  16  26  30  31  32  33  35 0
 6-311+G(2d,p)
 ****
 37  38 0
 6-311+G(2d,p)
 ****
 1  2  3  4  5  17  18  19  20  21  22  23  24  25 0
 3-21G
 ****
 27  28  29  34  36  39  40  41  42  43  44  45  46 0
 3-21G
 ****


