%nproc=1
%NoSave
%Mem=1900MB
#P OB98/GEN NMR

erre ene a

0 1
  C     -899.070     840.333    -281.853
  O     -897.810     840.150    -282.460
  H     -899.250     841.400    -281.710
  H     -899.100     839.838    -280.878
  H     -899.870     839.916    -282.491
  P     -897.440     838.655    -282.936
  C     -896.840     839.835    -285.156
  O     -896.510     838.811    -284.235
  C     -895.960     839.717    -286.412
  O     -895.900     838.338    -286.869
  C     -896.440     840.539    -287.605
  O     -896.040     841.899    -287.520
  C     -895.720     839.816    -288.744
  O     -894.350     840.223    -288.780
  C     -895.840     838.333    -288.304
  N     -898.050     836.421    -292.451
  C     -896.810     837.059    -292.307
  N     -896.060     837.184    -293.418
  N     -896.360     837.492    -291.156
  C     -897.220     837.300    -290.123
  C     -898.470     836.696    -290.147
  C     -898.950     836.184    -291.420
  O     -900.000     835.598    -291.601
  N     -899.030     836.662    -288.918
  C     -898.160     837.272    -288.135
  N     -897.040     837.679    -288.837
  O     -898.830     838.113    -283.531
  O     -896.920     837.749    -281.868
  H     -893.880     839.637    -289.408
  H     -898.900     837.163    -283.329
  H     -898.360     836.107    -293.355
  H     -898.270     837.424    -287.080
  H     -894.990     837.751    -288.618
  H     -896.150     840.065    -289.718
  H     -896.370     836.912    -294.332
  H     -897.530     840.449    -287.740
  H     -895.140     837.613    -293.349
  H     -894.940     840.012    -286.129
  H     -896.660     840.816    -284.708
  H     -897.900     839.743    -285.453
  P     -897.090     843.036    -287.935
  C     -895.950     844.349    -286.034
  O     -896.530     844.406    -287.318
  O     -898.350     842.701    -287.029
  O     -897.440     843.058    -289.388
  H     -899.170     843.054    -287.432
  H     -895.621     845.326    -285.747
  H     -895.114     843.682    -286.050
  H     -896.675     843.996    -285.331

 6  7  8  9  10  11  12  13  14  15  26  29  33  34 0
 6-311+G(2d,p)
 ****
 36  38  39  40  41 0
 6-311+G(2d,p)
 ****
 1  2  3  4  5  16  17  18  19  20  21  22  23  24  25 0
 3-21G
 ****
 27  28  30  31  32  35  37  42  43  44  45  46  47 0
 3-21G
 ****
 48  49 0
 3-21G
 ****


