%nproc=1
%NoSave
%Mem=1900MB
#P OB98/GEN NMR

erre ene a

0 1
  C      -35.447    -347.042    -133.343
  O      -34.816    -346.288    -134.359
  H      -35.549    -346.415    -132.453
  H      -34.835    -347.911    -133.092
  H      -36.440    -347.362    -133.666
  P      -34.649    -346.996    -135.789
  C      -34.263    -345.931    -138.122
  O      -33.922    -345.924    -136.743
  C      -33.429    -344.905    -138.887
  O      -34.016    -343.582    -138.695
  C      -31.961    -344.823    -138.443
  O      -31.161    -344.540    -139.599
  C      -31.946    -343.595    -137.546
  O      -30.643    -343.033    -137.408
  C      -32.945    -342.709    -138.287
  N      -31.820    -338.111    -136.583
  C      -31.140    -338.935    -137.458
  N      -29.977    -338.464    -137.959
  N      -31.560    -340.120    -137.812
  C      -32.754    -340.451    -137.262
  C      -33.524    -339.730    -136.380
  C      -33.029    -338.430    -135.972
  O      -33.578    -337.664    -135.187
  N      -34.654    -340.425    -136.029
  C      -34.568    -341.559    -136.698
  N      -33.432    -341.622    -137.457
  O      -36.152    -347.032    -136.338
  O      -34.030    -348.353    -135.763
  H      -30.128    -343.611    -136.807
  H      -36.573    -347.883    -136.115
  H      -31.444    -337.213    -136.332
  H      -35.290    -342.364    -136.664
  H      -32.513    -342.253    -139.185
  H      -32.316    -343.853    -136.546
  H      -29.614    -337.543    -137.768
  H      -31.589    -345.725    -137.945
  H      -29.484    -339.035    -138.635
  H      -33.501    -345.128    -139.960
  H      -35.324    -345.681    -138.226
  H      -34.091    -346.933    -138.531
  P      -30.305    -345.737    -140.231
  C      -29.301    -346.258    -142.573
  O      -29.791    -345.273    -141.676
  O      -31.423    -346.828    -140.587
  O      -29.259    -346.294    -139.320
  H      -31.033    -347.722    -140.562
  H      -28.999    -345.790    -143.487
  H      -30.072    -346.971    -142.775
  H      -28.462    -346.755    -142.133

 6  7  8  9  10  11  12  13  14  15  26  29  33  34 0
 6-311+G(2d,p)
 ****
 36  38  39  40  41 0
 6-311+G(2d,p)
 ****
 1  2  3  4  5  16  17  18  19  20  21  22  23  24  25 0
 3-21G
 ****
 27  28  30  31  32  35  37  42  43  44  45  46  47 0
 3-21G
 ****
 48  49 0
 3-21G
 ****


