%nproc=1
%NoSave
%Mem=1900MB
#P OB98/GEN NMR

erre ene a

0 1
  C      615.588    -585.769      85.328
  O      616.957    -585.698      85.677
  H      615.218    -584.757      85.127
  H      615.006    -586.195      86.153
  H      615.456    -586.377      84.428
  P      617.667    -587.065      86.113
  C      619.845    -585.985      85.199
  O      619.239    -586.758      86.219
  C      621.044    -585.224      85.776
  O      621.978    -586.167      86.366
  C      621.847    -584.454      84.741
  O      621.237    -583.225      84.378
  C      623.158    -584.257      85.478
  O      623.115    -583.117      86.348
  C      623.284    -585.567      86.285
  N      624.269    -586.476      85.695
  C      625.531    -586.450      86.274
  O      625.829    -585.719      87.227
  N      626.474    -587.265      85.706
  C      626.282    -588.048      84.602
  O      627.178    -588.710      84.105
  C      624.931    -588.026      84.025
  C      624.001    -587.243      84.584
  O      617.541    -587.977      84.806
  O      617.075    -587.727      87.319
  H      616.867    -588.666      84.952
  H      622.955    -582.353      85.762
  H      627.391    -587.256      86.113
  H      624.743    -588.631      83.145
  H      622.996    -587.199      84.171
  H      623.594    -585.348      87.319
  H      623.982    -584.108      84.776
  H      622.025    -585.077      83.850
  H      620.681    -584.558      86.569
  H      619.120    -585.257      84.808
  H      620.152    -586.645      84.385
  P      621.680    -582.548      82.987
  C      619.896    -580.626      83.262
  O      621.259    -581.005      83.096
  O      620.607    -583.197      81.995
  O      623.100    -582.815      82.631
  H      619.779    -583.428      82.459
  H      619.826    -579.560      83.313
  H      619.515    -581.052      84.167
  H      619.323    -580.982      82.431

 6  7  8  9  10  11  12  13  14  15  16  27  31  32  33  34  35 0
 6-311+G(2d,p)
 ****
 36  37 0
 6-311+G(2d,p)
 ****
 1  2  3  4  5  17  18  19  20  21  22  23  24  25 0
 3-21G
 ****
 26  28  29  30  38  39  40  41  42  43  44  45 0
 3-21G
 ****


