%nproc=1
%NoSave
%Mem=1900MB
#P OB98/GEN NMR

erre ene a

0 1
  C        2.340      33.284     -48.989
  O        2.822      34.524     -49.474
  P        3.880      35.336     -48.583
  C        1.964      36.452     -47.175
  O        3.146      35.673     -47.198
  C        1.619      36.853     -45.737
  O        1.336      35.652     -44.968
  C        2.733      37.614     -45.006
  O        2.099      38.570     -44.146
  C        3.405      36.525     -44.189
  O        4.126      37.037     -43.081
  C        2.194      35.665     -43.811
  N        2.549      34.300     -43.421
  C        3.002      34.092     -42.122
  O        3.140      34.989     -41.292
  N        3.325      32.797     -41.806
  C        3.305      31.731     -42.656
  O        3.623      30.596     -42.324
  C        2.865      32.021     -44.028
  C        2.504      33.267     -44.338
  O        3.923      36.736     -49.353
  O        5.197      34.652     -48.443
  H        3.061      36.995     -49.720
  H        4.551      36.289     -42.623
  H        3.620      32.617     -40.857
  H        2.850      31.203     -44.738
  H        2.177      33.505     -45.343
  H        1.633      36.143     -43.000
  H        4.105      35.972     -44.825
  H        3.412      38.125     -45.693
  H        0.699      37.450     -45.759
  H        1.137      35.870     -47.589
  H        2.102      37.337     -47.804
  P        2.852      39.968     -43.880
  C        4.236      39.351     -41.745
  O        4.224      39.636     -43.126
  O        1.935      40.563     -42.705
  O        2.936      40.873     -45.064
  H        1.764      39.922     -41.998
  H        5.168      38.836     -41.500
  H        3.398      38.708     -41.463
  H        4.190      40.284     -41.177
  H        1.648      32.871     -49.693
  H        1.848      33.435     -48.051
  H        3.160      32.610     -48.857

 3  4  5  6  7  8  9  10  11  12  13  24  28  29  30  31  32 0
 6-311+G(2d,p)
 ****
 33  34 0
 6-311+G(2d,p)
 ****
 1  2  14  15  16  17  18  19  20  21  22  23  25  26  27 0
 3-21G
 ****
 35  36  37  38  39  40  41  42  43  44  45 0
 3-21G
 ****


