%nproc=1
%NoSave
%Mem=1900MB
#P OB98/GEN NMR

erre ene a

0 1
  C      395.848     276.860      77.579
  O      394.714     277.061      76.762
  H      395.516     276.705      78.608
  H      396.491     277.743      77.546
  H      396.407     275.979      77.253
  P      394.964     277.105      75.178
  C      394.059     274.700      74.809
  O      395.167     275.583      74.707
  C      394.078     273.698      73.657
  O      393.942     274.383      72.392
  C      395.358     272.875      73.561
  O      395.341     271.765      74.450
  C      395.290     272.420      72.114
  O      394.344     271.339      71.986
  C      394.757     273.676      71.414
  N      398.899     274.042      68.515
  C      398.102     272.947      68.789
  N      398.465     271.781      68.215
  N      397.047     272.990      69.559
  C      396.810     274.219      70.072
  C      397.526     275.379      69.875
  C      398.687     275.322      69.013
  O      399.413     276.265      68.721
  N      396.974     276.433      70.554
  C      395.937     275.909      71.180
  N      395.800     274.567      70.927
  O      396.437     277.726      75.053
  O      393.975     277.895      74.392
  H      394.567     270.687      72.674
  H      396.472     278.292      74.257
  H      399.710     273.951      67.924
  H      395.261     276.455      71.822
  H      394.113     273.438      70.561
  H      396.247     272.052      71.742
  H      399.293     271.668      67.653
  H      396.247     273.499      73.707
  H      397.877     270.971      68.372
  H      393.204     273.041      73.769
  H      393.130     275.279      74.768
  H      394.110     274.174      75.766
  P      396.747     271.284      75.066
  C      396.719     273.211      76.807
  O      397.402     272.595      75.721
  O      397.643     271.036      73.762
  O      396.674     270.079      75.936
  H      398.367     270.413      73.967
  H      397.271     274.066      77.136
  H      396.628     272.513      77.613
  H      395.744     273.517      76.488

 6  7  8  9  10  11  12  13  14  15  26  29  33  34 0
 6-311+G(2d,p)
 ****
 36  38  39  40  41 0
 6-311+G(2d,p)
 ****
 1  2  3  4  5  16  17  18  19  20  21  22  23  24  25 0
 3-21G
 ****
 27  28  30  31  32  35  37  42  43  44  45  46  47 0
 3-21G
 ****
 48  49 0
 3-21G
 ****


