%nproc=1
%NoSave
%Mem=1900MB
#P OB98/GEN NMR

erre ene a

0 1
  C       55.790     312.875     409.831
  O       56.977     312.271     409.350
  H       55.226     312.135     410.405
  H       55.163     313.218     409.002
  H       56.031     313.717     410.484
  P       57.901     313.111     408.347
  C       57.284     314.646     406.358
  O       56.963     313.474     407.101
  C       56.191     314.930     405.332
  O       54.952     315.255     405.996
  C       56.506     316.122     404.435
  O       57.463     315.774     403.455
  C       55.122     316.455     403.911
  O       54.745     315.583     402.841
  C       54.249     316.205     405.161
  N       53.956     317.431     405.901
  C       52.932     318.228     405.382
  O       52.328     317.888     404.362
  N       52.634     319.409     406.021
  C       53.286     319.750     407.086
  N       52.942     320.929     407.670
  C       54.362     318.931     407.674
  C       54.644     317.799     407.033
  O       59.217     312.502     407.972
  O       58.081     314.518     409.090
  H       53.843     315.855     402.578
  H       58.862     314.500     409.671
  H       54.875     319.251     408.569
  H       55.421     317.135     407.401
  H       53.298     315.739     404.883
  H       55.073     317.479     403.539
  H       56.856     316.965     405.039
  H       56.029     314.020     404.739
  H       52.202     321.464     407.227
  H       58.236     314.459     405.854
  H       53.317     321.253     408.548
  H       57.406     315.507     407.028
  P       58.307     316.913     402.699
  C       57.658     318.837     401.106
  O       57.277     317.581     401.658
  O       59.605     316.468     402.123
  O       58.462     318.048     403.818
  H       59.124     317.792     404.505
  H       56.898     319.176     400.434
  H       58.581     318.728     400.576
  H       57.781     319.550     401.894

 6  7  8  9  10  11  12  13  14  15  16  26  30  31  32  33  35 0
 6-311+G(2d,p)
 ****
 37  38 0
 6-311+G(2d,p)
 ****
 1  2  3  4  5  17  18  19  20  21  22  23  24  25 0
 3-21G
 ****
 27  28  29  34  36  39  40  41  42  43  44  45  46 0
 3-21G
 ****


