%nproc=1
%NoSave
%Mem=1900MB
#P OB98/GEN NMR

erre ene a

0 1
  C      753.903     268.597     210.131
  O      753.106     269.749     210.334
  H      753.586     268.112     209.194
  H      753.758     267.892     210.954
  H      754.960     268.868     210.050
  P      753.516     270.700     211.550
  C      751.024     270.766     212.391
  O      752.395     270.526     212.689
  C      750.149     269.701     213.025
  O      750.692     268.380     212.808
  C      750.061     269.794     214.550
  O      749.278     270.892     214.975
  C      749.438     268.439     214.873
  O      748.016     268.443     214.629
  C      750.170     267.522     213.860
  N      751.229     266.730     214.490
  C      750.843     265.450     214.926
  O      749.684     265.054     214.755
  N      751.778     264.669     215.554
  C      752.989     265.109     215.721
  N      753.865     264.290     216.364
  C      753.443     266.438     215.255
  C      752.507     267.192     214.669
  O      753.205     272.163     210.974
  O      754.908     270.520     212.061
  H      747.721     267.529     214.755
  H      752.300     272.262     210.633
  H      754.452     266.755     215.416
  H      752.754     268.182     214.288
  H      749.456     266.832     213.390
  H      749.579     268.166     215.923
  H      751.060     269.825     214.992
  H      749.156     269.737     212.563
  H      753.513     263.391     216.687
  H      750.866     270.814     211.312
  H      754.809     264.534     216.586
  H      750.771     271.751     212.799
  P      749.946     272.080     215.838
  C      747.755     272.375     217.169
  O      749.163     272.105     217.236
  O      750.036     273.393     215.141
  O      751.367     271.473     216.261
  H      751.318     270.648     216.787
  H      747.343     272.366     218.156
  H      747.276     271.624     216.576
  H      747.597     273.336     216.725

 6  7  8  9  10  11  12  13  14  15  16  26  30  31  32  33  35 0
 6-311+G(2d,p)
 ****
 37  38 0
 6-311+G(2d,p)
 ****
 1  2  3  4  5  17  18  19  20  21  22  23  24  25 0
 3-21G
 ****
 27  28  29  34  36  39  40  41  42  43  44  45  46 0
 3-21G
 ****


