%nproc=1
%NoSave
%Mem=1900MB
#P OB98/GEN NMR

erre ene a

0 1
  C      121.913    -218.011    -225.791
  O      122.980    -218.894    -225.402
  P      123.056    -220.371    -226.040
  C      124.966    -221.963    -226.869
  O      124.594    -220.825    -226.100
  C      126.410    -221.828    -227.359
  O      126.544    -220.656    -228.202
  C      127.440    -221.636    -226.253
  O      127.729    -222.851    -225.583
  C      128.616    -221.075    -227.032
  O      129.374    -222.128    -227.652
  C      127.910    -220.210    -228.098
  N      127.988    -218.779    -227.812
  C      129.259    -218.253    -227.622
  O      130.283    -218.932    -227.624
  N      129.320    -216.899    -227.389
  C      128.240    -216.055    -227.262
  O      128.359    -214.864    -227.037
  C      126.915    -216.693    -227.394
  C      126.853    -218.003    -227.656
  O      122.730    -220.082    -227.583
  O      122.098    -221.368    -225.476
  H      129.756    -222.656    -226.918
  H      122.325    -220.869    -227.980
  H      130.224    -216.492    -227.278
  H      126.042    -216.070    -227.275
  H      125.882    -218.483    -227.754
  H      128.361    -220.387    -229.090
  H      129.317    -220.509    -226.397
  H      127.085    -220.887    -225.544
  H      126.644    -222.714    -227.963
  H      124.293    -222.049    -227.731
  H      124.860    -222.858    -226.244
  P      127.415    -222.899    -224.010
  C      127.524    -224.894    -222.321
  O      128.016    -224.299    -223.503
  O      125.828    -223.110    -224.019
  O      127.883    -221.683    -223.278
  H      125.532    -223.646    -224.782
  H      126.469    -224.683    -222.172
  H      128.101    -224.511    -221.459
  H      127.674    -225.985    -222.387
  H      122.015    -217.079    -225.275
  H      120.973    -218.456    -225.541
  H      121.957    -217.841    -226.847

 3  4  5  6  7  8  9  10  11  12  13  23  28  29  30  31  32 0
 6-311+G(2d,p)
 ****
 33  34 0
 6-311+G(2d,p)
 ****
 1  2  14  15  16  17  18  19  20  21  22  24  25  26 0
 3-21G
 ****
 27  35  36  37  38  39  40  41  42  43  44  45 0
 3-21G
 ****


