%nproc=1
%NoSave
%Mem=1900MB
#P OB98/GEN NMR

erre ene a

0 1
  C      152.882    -526.732      73.645
  O      151.750    -527.369      74.215
  P      151.165    -527.002      75.645
  C      151.092    -528.091      78.015
  O      151.604    -528.154      76.690
  C      150.475    -529.427      78.479
  O      151.444    -530.493      78.315
  C      150.166    -529.357      79.980
  O      148.946    -528.780      80.430
  C      150.421    -530.783      80.504
  O      149.229    -531.551      80.613
  C      151.357    -531.370      79.440
  N      154.272    -534.367      82.314
  C      152.985    -534.587      81.853
  N      152.346    -535.654      82.367
  N      152.394    -533.827      80.974
  C      153.124    -532.747      80.621
  C      154.422    -532.419      80.998
  C      155.067    -533.308      81.926
  O      156.172    -533.092      82.443
  N      154.811    -531.215      80.489
  C      153.756    -530.775      79.840
  N      152.698    -531.650      79.923
  O      149.764    -526.492      75.698
  O      152.137    -525.785      76.093
  H      148.657    -531.133      81.285
  H      151.602    -525.145      76.621
  H      154.638    -534.955      83.046
  H      153.696    -529.818      79.324
  H      150.950    -532.320      79.070
  H      150.863    -530.742      81.506
  H      152.708    -536.175      83.154
  H      150.946    -528.741      80.443
  H      151.351    -535.760      82.183
  H      149.622    -529.698      77.854
  H      150.340    -527.289      78.035
  H      151.889    -527.806      78.699
  P      148.551    -528.458      81.941
  C      148.237    -529.794      84.120
  O      148.267    -529.837      82.696
  O      147.095    -527.794      81.844
  O      149.496    -527.537      82.662
  H      146.919    -527.263      82.634
  H      148.350    -530.795      84.510
  H      147.285    -529.365      84.445
  H      149.073    -529.168      84.489
  H      153.079    -527.151      72.681
  H      153.731    -526.880      74.279
  H      152.689    -525.684      73.546

 3  4  5  6  7  8  9  10  11  12  23  26  30  31 0
 6-311+G(2d,p)
 ****
 33  35  36  37  38 0
 6-311+G(2d,p)
 ****
 1  2  13  14  15  16  17  18  19  20  21  22  24  25 0
 3-21G
 ****
 27  28  29  32  34  39  40  41  42  43  44  45  46  47  48  49 0
 3-21G
 ****


