%nproc=1
%NoSave
%Mem=1900MB
#P OB98/GEN NMR

erre ene a

0 1
  C     -176.956     205.606     643.584
  O     -177.358     206.954     643.573
  H     -177.837     204.971     643.454
  H     -176.494     205.362     644.544
  H     -176.255     205.397     642.770
  P     -176.246     208.105     643.463
  C     -175.183     209.698     645.197
  O     -175.805     208.438     644.969
  C     -174.679     209.784     646.637
  O     -175.828     209.676     647.532
  C     -173.689     208.659     647.010
  O     -172.730     209.183     647.942
  C     -174.606     207.672     647.710
  O     -173.892     206.778     648.527
  C     -175.538     208.618     648.462
  N     -176.740     207.926     648.919
  C     -176.612     207.113     650.044
  O     -175.548     206.942     650.641
  N     -177.735     206.425     650.420
  C     -178.915     206.392     649.738
  O     -179.865     205.703     650.081
  C     -178.980     207.235     648.530
  C     -177.910     207.958     648.184
  O     -176.613     209.300     642.642
  O     -174.955     207.347     642.895
  H     -173.331     207.272     649.155
  H     -174.339     207.986     642.487
  H     -177.660     205.840     651.237
  H     -179.898     207.222     647.953
  H     -177.914     208.573     647.293
  H     -175.030     209.069     649.326
  H     -175.153     207.083     646.968
  H     -173.176     208.233     646.148
  H     -174.231     210.768     646.808
  H     -175.920     210.486     645.010
  H     -174.344     209.821     644.495
  P     -171.202     209.432     647.527
  C     -168.933     208.226     647.533
  O     -170.336     208.085     647.714
  O     -170.585     210.637     648.167
  O     -171.247     209.625     645.938
  H     -170.699     210.397     645.692
  H     -168.458     207.279     647.679
  H     -168.551     208.930     648.242
  H     -168.735     208.576     646.541

 6  7  8  9  10  11  12  13  14  15  16  26  31  32  33  34  35 0
 6-311+G(2d,p)
 ****
 36  37 0
 6-311+G(2d,p)
 ****
 1  2  3  4  5  17  18  19  20  21  22  23  24  25 0
 3-21G
 ****
 27  28  29  30  38  39  40  41  42  43  44  45 0
 3-21G
 ****


