%nproc=1
%NoSave
%Mem=1900MB
#P OB98/GEN NMR

erre ene a

0 1
  C       31.982      80.798      38.696
  O       32.249      79.684      39.522
  H       32.784      80.891      37.959
  H       31.948      81.712      39.295
  H       31.033      80.663      38.170
  P       31.161      79.346      40.652
  C       32.387      80.954      42.286
  O       31.161      80.593      41.662
  C       32.376      80.503      43.744
  O       33.603      80.918      44.385
  C       31.253      81.108      44.578
  O       30.019      80.447      44.365
  C       31.802      80.928      45.987
  O       31.542      79.611      46.490
  C       33.310      81.123      45.785
  N       33.220      84.505      49.596
  C       32.748      83.244      49.497
  N       32.830      82.398      48.447
  C       33.488      82.976      47.428
  C       34.019      84.253      47.381
  C       33.868      85.039      48.534
  N       34.317      86.335      48.623
  N       34.580      84.499      46.143
  C       34.400      83.387      45.459
  N       33.750      82.439      46.197
  O       31.868      78.178      41.490
  O       29.820      78.937      40.142
  H       31.857      79.599      47.415
  H       31.569      77.311      41.159
  H       32.233      82.864      50.375
  H       34.711      83.226      44.434
  H       33.901      80.392      46.349
  H       31.349      81.636      46.683
  H       31.160      82.180      44.369
  H       32.333      79.407      43.769
  H       32.505      82.043      42.247
  H       33.213      80.485      41.743
  H       34.154      86.848      49.475
  H       34.706      86.777      47.801
  P       28.678      81.139      44.901
  C       28.697      79.673      47.048
  O       28.653      80.979      46.497
  O       27.528      80.145      44.402
  O       28.460      82.533      44.418
  H       27.102      80.495      43.597
  H       28.673      79.735      48.116
  H       29.598      79.186      46.739
  H       27.853      79.112      46.705

 6  7  8  9  10  11  12  13  14  15  25  28  32  33  34  35 0
 6-311+G(2d,p)
 ****
 36  37  40 0
 6-311+G(2d,p)
 ****
 1  2  3  4  5  16  17  18  19  20  21  22  23  24 0
 3-21G
 ****
 26  27  29  30  31  38  39 41  42  43  44  45  46  47  48 0
 3-21G
 ****


