%nproc=1
%NoSave
%Mem=1900MB
#P OB98/GEN NMR

erre ene a

0 1
  C      190.962     311.681     -19.635
  O      190.802     312.946     -18.983
  P      192.054     313.748     -18.373
  C      191.404     313.710     -15.889
  O      192.345     313.275     -16.863
  C      191.853     313.438     -14.446
  O      191.681     312.034     -14.103
  C      193.323     313.778     -14.152
  O      193.367     314.175     -12.778
  C      194.009     312.436     -14.341
  O      195.289     312.363     -13.733
  C      192.969     311.505     -13.735
  N      196.169     307.530     -14.185
  C      196.267     308.688     -13.504
  N      195.363     309.683     -13.402
  C      194.234     309.370     -14.059
  C      193.981     308.221     -14.789
  C      195.017     307.268     -14.850
  N      194.940     306.106     -15.580
  N      192.718     308.265     -15.355
  C      192.227     309.428     -14.979
  N      193.104     310.135     -14.192
  O      191.967     315.231     -18.537
  O      193.313     313.184     -19.184
  H      195.844     313.080     -14.097
  H      193.874     313.934     -19.465
  H      197.208     308.847     -12.980
  H      191.261     309.821     -15.264
  H      193.027     311.500     -12.640
  H      194.143     312.249     -15.419
  H      193.727     314.559     -14.800
  H      191.196     314.006     -13.780
  H      190.450     313.199     -16.070
  H      195.765     305.534     -15.640
  H      194.145     305.958     -16.184
  H      191.236     314.786     -16.022
  P      193.190     315.704     -12.337
  C      195.597     316.333     -11.733
  O      194.565     316.449     -12.695
  O      192.720     315.901     -10.931
  O      192.151     316.312     -13.392
  H      191.759     317.130     -13.032
  H      195.392     317.000     -10.891
  H      196.550     316.624     -12.193
  H      195.682     315.308     -11.370
  H      190.008     311.326     -19.963
  H      191.388     310.978     -18.950
  H      191.610     311.794     -20.479

 3  4  5  6  7  8  9  10  11  12  22  25  29  30  31  32 0
 6-311+G(2d,p)
 ****
 33  36  37 0
 6-311+G(2d,p)
 ****
 1  2  13  14  15  16  17  18  19  20  21  23  24  26 0
 3-21G
 ****
 27  28  34  35  38  39  40  41  42  43  44  45  46  47  48 0
 3-21G
 ****


