%nproc=1
%NoSave
%Mem=1900MB
#P OB98/GEN NMR

erre ene a

0 1
  C      196.604     217.617     -55.956
  O      195.396     217.254     -56.595
  H      196.506     217.426     -54.884
  H      196.807     218.681     -56.108
  H      197.434     217.019     -56.346
  P      195.330     217.482     -58.182
  C      193.852     219.551     -58.704
  O      195.152     219.065     -58.398
  C      192.987     219.583     -57.447
  O      193.724     220.131     -56.332
  C      191.716     220.412     -57.578
  O      190.680     219.673     -58.206
  C      191.412     220.726     -56.120
  O      190.751     219.623     -55.468
  C      192.816     220.943     -55.540
  N      193.277     225.126     -52.743
  C      192.844     223.861     -52.393
  N      192.422     223.704     -51.118
  N      192.820     222.847     -53.216
  C      193.239     223.162     -54.465
  C      193.705     224.372     -54.930
  C      193.757     225.477     -53.997
  O      194.190     226.603     -54.229
  N      194.054     224.290     -56.255
  C      193.766     223.051     -56.597
  N      193.251     222.330     -55.549
  O      193.895     216.893     -58.585
  O      196.427     216.844     -58.968
  H      191.267     218.812     -55.606
  H      193.939     216.540     -59.494
  H      193.290     225.860     -52.058
  H      193.908     222.629     -57.583
  H      192.891     220.596     -54.502
  H      190.748     221.588     -56.020
  H      192.112     224.488     -50.560
  H      191.917     221.349     -58.116
  H      192.084     222.784     -50.857
  H      192.740     218.541     -57.189
  H      193.388     218.886     -59.441
  H      193.932     220.556     -59.129
  P      189.372     220.474     -58.681
  C      187.132     219.739     -57.578
  O      188.355     220.453     -57.441
  O      188.692     219.477     -59.732
  O      189.644     221.816     -59.273
  H      188.045     219.961     -60.280
  H      186.568     219.820     -56.672
  H      187.341     218.709     -57.777
  H      186.567     220.151     -58.388

 6  7  8  9  10  11  12  13  14  15  26  29  33  34 0
 6-311+G(2d,p)
 ****
 36  38  39  40  41 0
 6-311+G(2d,p)
 ****
 1  2  3  4  5  16  17  18  19  20  21  22  23  24  25 0
 3-21G
 ****
 27  28  30  31  32  35  37  42  43  44  45  46  47 0
 3-21G
 ****
 48  49 0
 3-21G
 ****


