%nproc=1
%NoSave
%Mem=1900MB
#P OB98/GEN NMR

erre ene a

0 1
  C     -155.865    -138.641    -433.691
  O     -156.644    -137.941    -432.741
  P     -157.709    -138.709    -431.829
  C     -156.900    -137.982    -429.509
  O     -156.990    -139.058    -430.433
  C     -156.330    -138.446    -428.172
  O     -157.129    -139.555    -427.674
  C     -154.871    -138.925    -428.226
  O     -154.272    -138.571    -426.972
  C     -155.014    -140.436    -428.306
  O     -153.841    -141.129    -427.900
  C     -156.222    -140.643    -427.396
  N     -155.874    -145.713    -426.851
  C     -155.009    -144.719    -426.561
  N     -155.165    -143.392    -426.762
  C     -156.359    -143.133    -427.315
  C     -157.332    -144.045    -427.696
  C     -157.059    -145.397    -427.426
  N     -157.944    -146.424    -427.684
  N     -158.398    -143.395    -428.288
  C     -158.073    -142.117    -428.264
  N     -156.882    -141.908    -427.629
  O     -158.392    -139.863    -432.482
  O     -158.759    -137.573    -431.418
  H     -153.625    -140.856    -426.987
  H     -159.589    -137.695    -431.917
  H     -154.071    -145.021    -426.105
  H     -158.657    -141.315    -428.689
  H     -155.950    -140.596    -426.334
  H     -155.241    -140.729    -429.340
  H     -154.299    -138.510    -429.058
  H     -156.436    -137.626    -427.449
  H     -157.907    -137.584    -429.354
  H     -157.703    -147.336    -427.328
  H     -158.922    -146.199    -427.858
  H     -156.274    -137.185    -429.928
  P     -152.674    -138.515    -426.835
  C     -152.546    -135.976    -426.578
  O     -152.218    -137.086    -427.393
  O     -151.946    -139.688    -427.407
  O     -152.439    -138.386    -425.256
  H     -151.519    -138.624    -425.044
  H     -153.591    -135.695    -426.744
  H     -151.905    -135.132    -426.854
  H     -152.399    -136.201    -425.517
  H     -155.218    -137.955    -434.196
  H     -156.510    -139.113    -434.403
  H     -155.278    -139.384    -433.193

 3  4  5  6  7  8  9  10  11  12  22  25  29  30  31  32 0
 6-311+G(2d,p)
 ****
 33  36  37 0
 6-311+G(2d,p)
 ****
 1  2  13  14  15  16  17  18  19  20  21  23  24  26 0
 3-21G
 ****
 27  28  34  35  38  39  40  41  42  43  44  45  46  47  48 0
 3-21G
 ****


