%nproc=1
%NoSave
%Mem=1900MB
#P OB98/GEN NMR

erre ene a

0 1
  C      -73.903     184.873     259.426
  O      -72.947     185.918     259.482
  H      -73.376     183.925     259.290
  H      -74.576     185.029     258.579
  H      -74.475     184.833     260.356
  P      -73.492     187.363     259.908
  C      -71.208     188.265     260.843
  O      -72.244     188.376     259.871
  C      -69.953     188.998     260.365
  O      -69.335     188.284     259.278
  C      -70.219     190.383     259.794
  O      -70.554     191.329     260.788
  C      -68.891     190.659     259.103
  O      -67.920     191.180     260.013
  C      -68.479     189.247     258.602
  N      -68.553     189.140     257.156
  C      -67.670     189.971     256.445
  O      -66.894     190.697     257.058
  N      -67.728     189.968     255.081
  C      -68.603     189.226     254.474
  N      -68.630     189.302     253.108
  C      -69.550     188.343     255.178
  C      -69.474     188.351     256.513
  O      -73.768     187.179     261.476
  O      -74.674     187.840     259.130
  H      -67.117     191.367     259.481
  H      -73.025     186.779     261.961
  H      -70.259     187.732     254.618
  H      -70.133     187.724     257.105
  H      -67.454     189.021     258.911
  H      -69.003     191.392     258.299
  H      -71.008     190.320     259.028
  H      -69.242     189.040     261.207
  H      -67.993     189.958     252.672
  H      -70.981     187.206     261.047
  H      -69.311     188.835     252.536
  H      -71.579     188.699     261.777
  P      -71.676     192.433     260.551
  C      -72.706     192.070     262.898
  O      -72.094     193.000     262.002
  O      -72.841     191.991     259.717
  O      -70.869     193.664     259.932
  H      -70.164     194.012     260.500
  H      -72.935     192.562     263.820
  H      -72.034     191.259     263.084
  H      -73.607     191.694     262.461

 6  7  8  9  10  11  12  13  14  15  16  26  30  31  32  33  35 0
 6-311+G(2d,p)
 ****
 37  38 0
 6-311+G(2d,p)
 ****
 1  2  3  4  5  17  18  19  20  21  22  23  24  25 0
 3-21G
 ****
 27  28  29  34  36  39  40  41  42  43  44  45  46 0
 3-21G
 ****


