%nproc=1
%NoSave
%Mem=1900MB
#P OB98/GEN NMR

erre ene a

0 1
  C       26.951     -14.237      26.540
  O       28.012     -14.080      27.463
  P       28.077     -15.093      28.704
  C       29.695     -13.526      30.017
  O       28.462     -14.234      29.999
  C       29.967     -13.001      31.428
  O       28.949     -12.052      31.817
  C       29.945     -14.085      32.497
  O       31.155     -14.824      32.510
  C       29.719     -13.267      33.760
  O       30.955     -12.727      34.253
  C       28.797     -12.141      33.249
  N       27.404     -12.337      33.636
  C       27.079     -11.985      34.943
  O       27.909     -11.555      35.745
  N       25.777     -12.183      35.310
  C       24.801     -12.738      34.535
  O       23.662     -12.941      34.941
  C       25.209     -13.118      33.173
  C       26.472     -12.910      32.794
  O       29.389     -15.964      28.419
  O       26.868     -15.950      28.868
  H       30.748     -12.292      35.103
  H       29.250     -16.882      28.721
  H       25.516     -11.911      36.243
  H       24.459     -13.562      32.531
  H       26.795     -13.196      31.800
  H       29.129     -11.174      33.647
  H       29.287     -13.866      34.567
  H       29.085     -14.748      32.340
  H       30.934     -12.483      31.425
  H       29.642     -12.690      29.316
  H       30.497     -14.197      29.696
  P       31.066     -16.356      32.982
  C       33.658     -16.395      33.300
  O       32.381     -16.597      33.864
  O       31.346     -17.111      31.597
  O       29.763     -16.694      33.625
  H       31.952     -16.611      31.024
  H       33.657     -15.563      32.593
  H       33.977     -17.307      32.790
  H       34.366     -16.174      34.104
  H       27.035     -13.498      25.771
  H       26.016     -14.119      27.048
  H       26.999     -15.213      26.103

 3  4  5  6  7  8  9  10  11  12  13  23  28  29  30  31  32 0
 6-311+G(2d,p)
 ****
 33  34 0
 6-311+G(2d,p)
 ****
 1  2  14  15  16  17  18  19  20  21  22  24  25  26 0
 3-21G
 ****
 27  35  36  37  38  39  40  41  42  43  44  45 0
 3-21G
 ****


