%nproc=1
%NoSave
%Mem=1900MB
#P OB98/GEN NMR

erre ene a

0 1
  C     -767.789     547.784    -565.985
  O     -768.817     548.518    -566.623
  H     -767.184     548.472    -565.388
  H     -767.145     547.315    -566.730
  H     -768.217     547.024    -565.325
  P     -769.837     547.680    -567.531
  C     -770.303     547.686    -570.077
  O     -769.399     548.034    -569.036
  C     -769.578     547.669    -571.425
  O     -769.125     548.985    -571.781
  C     -768.335     546.791    -571.464
  O     -768.679     545.421    -571.641
  C     -767.607     547.354    -572.669
  O     -768.190     546.824    -573.877
  C     -767.911     548.862    -572.562
  N     -764.362     552.504    -573.302
  C     -765.125     551.803    -574.172
  N     -766.018     550.821    -573.911
  C     -766.088     550.573    -572.586
  C     -765.354     551.208    -571.578
  C     -764.471     552.217    -571.974
  N     -763.700     552.940    -571.090
  N     -765.686     550.688    -570.346
  C     -766.628     549.800    -570.595
  N     -766.878     549.669    -571.937
  O     -771.284     547.840    -567.209
  O     -769.255     546.190    -567.345
  H     -767.720     547.215    -574.636
  H     -768.289     546.204    -567.327
  H     -765.009     552.078    -575.217
  H     -767.172     549.237    -569.836
  H     -768.108     549.318    -573.551
  H     -766.558     547.088    -572.687
  H     -767.715     546.939    -570.567
  H     -770.294     547.343    -572.196
  H     -771.138     548.397    -570.117
  H     -762.970     553.523    -571.474
  H     -763.695     552.645    -570.135
  H     -770.711     546.695    -569.854
  P     -767.677     544.254    -571.170
  C     -766.214     542.528    -572.392
  O     -766.870     543.798    -572.481
  O     -768.328     543.142    -570.420
  O     -766.575     545.000    -570.295
  H     -766.312     544.445    -569.527
  H     -765.710     542.322    -573.313
  H     -766.939     541.764    -572.204
  H     -765.503     542.549    -571.593

 6  7  8  9  10  11  12  13  14  15  25  28  32  33  34  35 0
 6-311+G(2d,p)
 ****
 36  39  40 0
 6-311+G(2d,p)
 ****
 1  2  3  4  5  16  17  18  19  20  21  22  23  24 0
 3-21G
 ****
 26  27  29  30  31  37  38  41  42  43  44  45  46  47 0
 3-21G
 ****
 48 0
 3-21G
 ****


