%nproc=1
%NoSave
%Mem=1900MB
#P OB98/GEN NMR

erre ene a

0 1
  C      -66.398      -8.217     -85.055
  O      -66.180      -7.357     -83.955
  H      -66.638      -9.214     -84.676
  H      -65.493      -8.286     -85.664
  H      -67.233      -7.865     -85.665
  P      -65.960      -5.794     -84.229
  C      -64.044      -5.818     -82.502
  O      -64.449      -5.456     -83.816
  C      -62.559      -6.176     -82.498
  O      -62.296      -7.223     -83.459
  C      -61.647      -5.020     -82.887
  O      -61.502      -4.102     -81.821
  C      -60.378      -5.770     -83.259
  O      -59.625      -6.120     -82.088
  C      -60.949      -7.029     -83.947
  N      -60.924      -6.940     -85.406
  C      -59.709      -7.218     -86.024
  O      -58.683      -7.494     -85.404
  N      -59.704      -7.139     -87.392
  C      -60.737      -6.708     -88.172
  O      -60.652      -6.569     -89.388
  C      -61.988      -6.404     -87.464
  C      -62.024      -6.534     -86.136
  O      -66.991      -4.884     -83.653
  O      -65.922      -5.695     -85.828
  H      -58.909      -6.713     -82.389
  H      -66.763      -5.320     -86.149
  H      -58.830      -7.323     -87.856
  H      -62.833      -6.074     -88.050
  H      -62.936      -6.308     -85.596
  H      -60.377      -7.917     -83.649
  H      -59.722      -5.179     -83.897
  H      -62.035      -4.518     -83.780
  H      -62.301      -6.559     -81.502
  H      -64.628      -6.687     -82.180
  H      -64.245      -4.982     -81.824
  P      -62.365      -2.755     -81.804
  C      -60.289      -1.681     -82.872
  O      -61.712      -1.742     -82.860
  O      -62.625      -2.179     -80.452
  O      -63.738      -3.176     -82.513
  H      -64.477      -3.045     -81.889
  H      -59.968      -0.977     -83.611
  H      -59.893      -2.647     -83.104
  H      -59.937      -1.373     -81.910

 6  7  8  9  10  11  12  13  14  15  16  26  31  32  33  34  35 0
 6-311+G(2d,p)
 ****
 36  37 0
 6-311+G(2d,p)
 ****
 1  2  3  4  5  17  18  19  20  21  22  23  24  25 0
 3-21G
 ****
 27  28  29  30  38  39  40  41  42  43  44  45 0
 3-21G
 ****


