%nproc=1
%NoSave
%Mem=1900MB
#P OB98/GEN NMR

erre ene a

0 1
  C     -184.145     488.692    -602.987
  O     -185.257     488.302    -603.778
  H     -183.331     489.002    -603.649
  H     -183.805     487.847    -602.382
  H     -184.412     489.530    -602.338
  P     -186.628     488.036    -602.992
  C     -188.139     489.874    -604.108
  O     -187.439     489.428    -602.952
  C     -189.573     490.250    -603.736
  O     -189.595     491.258    -602.710
  C     -190.370     490.875    -604.866
  O     -190.743     489.942    -605.857
  C     -191.549     491.453    -604.097
  O     -192.571     490.471    -603.885
  C     -190.903     491.872    -602.756
  N     -190.847     493.317    -602.617
  C     -191.255     493.807    -601.362
  O     -191.617     493.030    -600.481
  N     -191.282     495.166    -601.174
  C     -190.959     495.963    -602.139
  N     -191.037     497.301    -601.899
  C     -190.514     495.487    -603.473
  C     -190.487     494.161    -603.636
  O     -186.137     487.854    -601.483
  O     -187.434     486.890    -603.513
  H     -193.423     490.949    -603.842
  H     -185.530     488.556    -601.182
  H     -190.245     496.192    -604.242
  H     -190.174     493.718    -604.584
  H     -191.466     491.461    -601.903
  H     -192.021     492.282    -604.641
  H     -189.808     491.719    -605.300
  H     -190.076     489.350    -603.348
  H     -191.396     497.593    -600.991
  H     -188.142     489.093    -604.881
  H     -190.887     498.010    -602.600
  H     -187.610     490.742    -604.511
  P     -191.090     490.405    -607.351
  C     -189.157     489.049    -608.387
  O     -189.718     490.337    -608.186
  O     -191.829     491.703    -607.459
  O     -191.896     489.145    -607.945
  H     -191.399     488.304    -607.948
  H     -188.253     489.138    -608.952
  H     -189.853     488.436    -608.921
  H     -188.942     488.602    -607.439

 6  7  8  9  10  11  12  13  14  15  16  26  30  31  32  33  35 0
 6-311+G(2d,p)
 ****
 37  38 0
 6-311+G(2d,p)
 ****
 1  2  3  4  5  17  18  19  20  21  22  23  24  25 0
 3-21G
 ****
 27  28  29  34  36  39  40  41  42  43  44  45  46 0
 3-21G
 ****


