%nproc=1
%NoSave
%Mem=1900MB
#P OB98/GEN NMR

erre ene a

0 1
  C      112.504     159.341     194.677
  O      113.485     159.640     193.704
  H      112.747     158.380     195.137
  H      111.523     159.265     194.204
  H      112.485     160.110     195.455
  P      113.463     161.109     193.065
  C      115.812     161.831     193.910
  O      114.408     162.023     193.988
  C      116.524     162.788     194.866
  O      116.025     162.550     196.214
  C      118.048     162.614     194.904
  O      118.646     163.903     195.079
  C      118.268     161.790     196.159
  O      119.571     161.917     196.711
  C      117.169     162.349     197.068
  N      116.847     161.453     198.176
  C      116.912     161.979     199.463
  O      117.137     163.157     199.728
  N      116.703     161.080     200.478
  C      116.467     159.745     200.337
  O      116.310     158.988     201.288
  C      116.420     159.247     198.955
  C      116.612     160.111     197.955
  O      111.991     161.630     193.412
  O      113.765     161.179     191.605
  H      111.367     161.391     192.702
  H      119.688     162.853     196.974
  H      116.748     161.445     201.416
  H      116.246     158.191     198.804
  H      116.604     159.773     196.923
  H      117.461     163.330     197.460
  H      118.094     160.729     195.944
  H      118.465     162.130     194.016
  H      116.254     163.817     194.602
  H      116.150     162.033     192.889
  H      116.049     160.792     194.162
  P      118.912     164.776     193.758
  C      117.532     166.743     194.802
  O      117.728     165.856     193.711
  O      118.540     163.725     192.613
  O      120.298     165.324     193.692
  H      117.808     163.137     192.861
  H      116.703     167.386     194.594
  H      118.414     167.332     194.945
  H      117.332     166.179     195.689

 6  7  8  9  10  11  12  13  14  15  16  27  31  32  33  34  35 0
 6-311+G(2d,p)
 ****
 36  37 0
 6-311+G(2d,p)
 ****
 1  2  3  4  5  17  18  19  20  21  22  23  24  25 0
 3-21G
 ****
 26  28  29  30  38  39  40  41  42  43  44  45 0
 3-21G
 ****


