%nproc=1
%NoSave
%Mem=1900MB
#P OB98/GEN NMR

erre ene a

0 1
  C     -894.180     667.956     341.385
  O     -894.590     667.407     340.128
  P     -894.090     668.114     338.786
  C     -896.560     668.662     338.188
  O     -895.300     668.129     337.720
  C     -897.470     668.978     336.999
  O     -896.860     670.016     336.161
  C     -897.670     667.801     336.048
  O     -898.450     666.719     336.536
  C     -898.140     668.470     334.794
  O     -899.540     668.763     334.819
  C     -897.330     669.803     334.806
  N     -896.190     669.799     333.869
  C     -896.530     669.693     332.530
  O     -897.670     669.622     332.109
  N     -895.450     669.692     331.650
  C     -894.150     669.717     331.991
  O     -893.230     669.676     331.184
  C     -893.860     669.786     333.437
  C     -894.880     669.790     334.307
  O     -892.780     667.612     338.225
  O     -893.950     669.640     339.174
  H     -900.000     667.940     334.608
  H     -893.150     670.002     338.776
  H     -895.670     669.647     330.662
  H     -892.810     669.796     333.742
  H     -894.690     669.849     335.362
  H     -897.970     670.657     334.540
  H     -897.960     667.851     333.908
  H     -896.670     667.382     335.830
  H     -898.420     669.364     337.370
  H     -896.380     669.559     338.788
  H     -897.040     667.919     338.856
  P     -897.810     665.364     337.102
  C     -898.460     664.036     334.979
  O     -898.530     664.135     336.397
  O     -897.590     665.265     338.580
  O     -896.370     665.370     336.376
  H     -895.720     664.945     336.977
  H     -899.020     663.144     334.646
  H     -897.400     663.915     334.655
  H     -898.900     664.923     334.505
  H     -894.595     667.374     342.181
  H     -894.527     668.965     341.463
  H     -893.112     667.940     341.450

 3  4  5  6  7  8  9  10  11  12  13  23  28  29  30  31  32 0
 6-311+G(2d,p)
 ****
 33  34 0
 6-311+G(2d,p)
 ****
 1  2  14  15  16  17  18  19  20  21  22  24  25  26  27 0
 3-21G
 ****
 35  36  37  38  39  40  41  42  43  44  45 0
 3-21G
 ****


