%nproc=1
%NoSave
%Mem=1900MB
#P OB98/GEN NMR

erre ene a

0 1
  C     -317.787      85.811      88.712
  O     -318.049      84.417      88.738
  P     -316.903      83.433      88.194
  C     -316.059      82.668      85.860
  O     -316.941      83.507      86.591
  C     -315.999      83.090      84.390
  O     -315.432      84.426      84.305
  C     -315.147      82.173      83.496
  O     -315.779      82.142      82.209
  C     -313.824      82.922      83.445
  O     -312.971      82.512      82.390
  C     -314.329      84.359      83.373
  N     -311.552      88.286      81.635
  C     -312.545      87.565      81.068
  N     -313.243      86.537      81.596
  C     -312.836      86.280      82.850
  C     -311.824      86.916      83.552
  C     -311.166      87.967      82.895
  N     -310.144      88.694      83.474
  N     -311.670      86.358      84.806
  C     -312.572      85.399      84.861
  N     -313.314      85.327      83.710
  O     -317.493      81.981      88.509
  O     -315.552      83.637      88.809
  H     -313.335      82.813      81.530
  H     -316.792      81.370      88.806
  H     -312.815      87.849      80.057
  H     -312.719      84.724      85.694
  H     -314.714      84.610      82.376
  H     -313.283      82.748      84.383
  H     -315.063      81.148      83.877
  H     -317.026      83.142      84.004
  H     -316.417      81.635      85.905
  H     -309.608      89.285      82.853
  H     -309.731      88.319      84.318
  H     -315.064      82.700      86.317
  P     -315.773      80.772      81.374
  C     -314.050      79.644      79.838
  O     -314.319      80.741      80.692
  O     -316.704      81.173      80.134
  O     -316.211      79.557      82.117
  H     -316.412      82.006      79.723
  H     -313.074      79.800      79.370
  H     -314.813      79.579      79.055
  H     -314.018      78.720      80.416
  H     -318.632      86.340      89.101
  H     -317.605      86.121      87.704
  H     -316.926      86.023      89.311

 3  4  5  6  7  8  9  10  11  12  22  25  29  30  31  32 0
 6-311+G(2d,p)
 ****
 33  36  37 0
 6-311+G(2d,p)
 ****
 1  2  13  14  15  16  17  18  19  20  21  23  24  26 0
 3-21G
 ****
 27  28  34  35  38  39  40  41  42  43  44  45  46  47  48 0
 3-21G
 ****


