%nproc=1
%NoSave
%Mem=1900MB
#P OB98/GEN NMR

erre ene a

0 1
  C      907.356    -895.520    -431.676
  O      907.673    -894.380    -432.454
  H      907.643    -896.430    -432.241
  H      906.277    -895.550    -431.491
  H      907.899    -895.510    -430.725
  P      907.712    -892.970    -431.685
  C      910.204    -892.520    -432.260
  O      909.240    -892.730    -431.243
  C      911.100    -893.750    -432.417
  O      910.292    -894.850    -432.909
  C      912.277    -893.560    -433.390
  O      913.419    -894.270    -432.881
  C      911.798    -894.260    -434.647
  O      912.868    -894.660    -435.488
  C      910.996    -895.420    -434.046
  N      910.794    -898.810    -437.735
  C      911.786    -898.550    -436.793
  N      912.930    -899.280    -436.901
  N      911.670    -897.670    -435.842
  C      910.478    -897.030    -435.863
  C      909.416    -897.180    -436.719
  C      909.580    -898.160    -437.780
  O      908.737    -898.420    -438.652
  N      908.399    -896.300    -436.423
  C      908.847    -895.600    -435.394
  N      910.109    -896.010    -435.010
  O      906.959    -893.290    -430.303
  O      907.079    -891.830    -432.414
  H      913.386    -893.860    -435.721
  H      906.014    -893.050    -430.385
  H      910.953    -899.490    -438.455
  H      908.332    -894.790    -434.898
  H      911.652    -896.200    -433.674
  H      911.146    -893.590    -435.220
  H      913.090    -900.000    -437.571
  H      912.548    -892.510    -433.557
  H      913.643    -899.120    -436.197
  H      911.471    -894.040    -431.421
  H      910.830    -891.660    -431.989
  H      909.687    -892.290    -433.204
  P      914.585    -893.420    -432.183
  C      914.529    -894.440    -429.777
  O      914.261    -893.320    -430.615
  O      914.326    -891.930    -432.715
  O      915.964    -893.890    -432.523
  H      915.170    -891.470    -432.829
  H      914.257    -894.205    -428.769
  H      915.572    -894.675    -429.819
  H      913.960    -895.281    -430.113

 6  7  8  9  10  11  12  13  14  15  26  29  33  34 0
 6-311+G(2d,p)
 ****
 36  38  39  40  41 0
 6-311+G(2d,p)
 ****
 1  2  3  4  5  16  17  18  19  20  21  22  23  24  25 0
 3-21G
 ****
 27  28  30  31  32  35  37  42  43  44  45  46  47 0
 3-21G
 ****
 48  49 0
 3-21G
 ****


