%nproc=1
%NoSave
%Mem=1900MB
#P OB98/GEN NMR

erre ene a

0 1
  C      320.906     315.437     259.402
  O      321.351     315.376     260.743
  H      320.298     314.556     259.196
  H      321.765     315.434     258.726
  H      320.299     316.332     259.227
  P      322.021     316.680     261.397
  C      324.335     317.797     261.156
  O      323.337     316.995     260.531
  C      325.728     317.221     260.901
  O      325.906     316.022     261.724
  C      325.980     316.815     259.437
  O      327.383     316.997     259.177
  C      325.645     315.340     259.468
  O      326.171     314.661     258.347
  C      326.213     314.932     260.829
  N      325.681     313.660     261.312
  C      326.587     312.614     261.440
  O      327.780     312.717     261.144
  N      326.072     311.427     261.886
  C      324.756     311.173     262.148
  O      324.350     310.074     262.513
  C      323.837     312.310     261.952
  C      324.328     313.478     261.555
  O      322.240     316.622     262.876
  O      321.041     317.880     260.987
  H      327.148     314.759     258.309
  H      321.056     318.574     261.671
  H      326.724     310.663     261.995
  H      322.782     312.129     262.137
  H      323.674     314.331     261.391
  H      327.313     314.845     260.779
  H      324.560     315.190     259.453
  H      325.376     317.381     258.724
  H      326.476     317.950     261.240
  H      324.132     317.812     262.236
  H      324.276     318.820     260.766
  P      327.970     318.387     258.611
  C      327.545     319.999     256.644
  O      327.234     318.732     257.224
  O      329.462     318.433     258.537
  O      327.409     319.500     259.617
  H      328.029     320.260     259.638
  H      327.000     320.117     255.731
  H      328.595     320.051     256.442
  H      327.274     320.779     257.324

 6  7  8  9  10  11  12  13  14  15  16  26  31  32  33  34  35 0
 6-311+G(2d,p)
 ****
 36  37 0
 6-311+G(2d,p)
 ****
 1  2  3  4  5  17  18  19  20  21  22  23  24  25 0
 3-21G
 ****
 27  28  29  30  38  39  40  41  42  43  44  45 0
 3-21G
 ****


