%nproc=1
%NoSave
%Mem=1900MB
#P OB98/GEN NMR

erre ene a

0 1
  C     -386.216     217.490    -189.563
  O     -387.385     216.976    -188.947
  P     -388.094     217.886    -187.831
  C     -389.835     218.598    -189.628
  O     -388.901     219.015    -188.635
  C     -391.205     219.220    -189.359
  O     -391.802     218.610    -188.202
  C     -391.163     220.708    -189.069
  O     -391.003     221.447    -190.259
  C     -392.512     220.915    -188.387
  O     -393.547     221.151    -189.353
  C     -392.733     219.569    -187.654
  N     -392.590     219.689    -186.213
  C     -393.483     220.569    -185.583
  O     -394.305     221.198    -186.250
  N     -393.386     220.740    -184.222
  C     -392.484     220.093    -183.556
  N     -392.437     220.299    -182.211
  C     -391.513     219.176    -184.183
  C     -391.619     219.026    -185.503
  O     -386.871     218.688    -187.188
  O     -388.877     217.126    -186.812
  H     -394.388     221.123    -188.849
  H     -387.070     218.950    -186.269
  H     -390.775     218.661    -183.581
  H     -390.945     218.370    -186.047
  H     -393.738     219.185    -187.865
  H     -392.499     221.782    -187.718
  H     -390.355     220.937    -188.359
  H     -391.852     219.012    -190.226
  H     -393.111     220.937    -181.811
  H     -389.929     217.508    -189.601
  H     -391.784     219.829    -181.601
  H     -389.462     218.896    -190.614
  P     -390.328     222.895    -190.155
  C     -387.876     222.311    -190.614
  O     -388.839     222.619    -189.628
  O     -391.034     223.502    -188.848
  O     -390.456     223.795    -191.335
  H     -390.776     224.435    -188.736
  H     -386.885     222.302    -190.146
  H     -387.880     223.066    -191.404
  H     -388.071     221.323    -191.038
  H     -385.852     216.785    -190.281
  H     -385.466     217.661    -188.819
  H     -386.448     218.412    -190.054

 3  4  5  6  7  8  9  10  11  12  13  21  23  27  28  29  30  32 0
 6-311+G(2d,p)
 ****
 34  35 0
 6-311+G(2d,p)
 ****
 1  2  14  15  16  17  18  19  20  22  24  25  26 0
 3-21G
 ****
 31  33  36  37  38  39  40  41  42  43  44  45  46 0
 3-21G
 ****


