%nproc=1
%NoSave
%Mem=1900MB
#P OB98/GEN NMR

erre ene a

0 1
  C      321.166    -235.218    -189.245
  O      320.477    -235.964    -190.255
  P      320.798    -235.632    -191.794
  C      320.667    -233.606    -193.389
  O      320.382    -234.110    -192.088
  C      319.541    -232.672    -193.875
  O      318.377    -233.478    -194.199
  C      319.060    -231.647    -192.839
  O      319.712    -230.382    -192.780
  C      317.637    -231.378    -193.324
  O      317.651    -230.401    -194.383
  C      317.185    -232.726    -193.883
  N      312.630    -234.985    -193.246
  C      313.169    -234.317    -194.290
  N      314.388    -233.748    -194.376
  C      315.082    -233.927    -193.243
  C      314.666    -234.587    -192.093
  C      313.371    -235.130    -192.121
  N      312.812    -235.800    -191.047
  N      315.650    -234.560    -191.127
  C      316.640    -233.879    -191.675
  N      316.354    -233.486    -192.956
  O      320.312    -236.633    -192.788
  O      322.401    -235.552    -191.806
  H      316.741    -230.353    -194.729
  H      322.735    -235.936    -192.641
  H      312.539    -234.225    -195.175
  H      317.577    -233.646    -191.187
  H      316.605    -232.624    -194.813
  H      316.995    -230.977    -192.535
  H      319.030    -232.093    -191.830
  H      319.865    -232.157    -194.787
  H      320.783    -234.435    -194.088
  H      311.861    -236.122    -191.140
  H      313.329    -235.865    -190.187
  H      321.640    -233.098    -193.342
  P      320.483    -229.907    -191.462
  C      319.678    -228.814    -189.215
  O      319.337    -229.453    -190.432
  O      321.551    -228.882    -191.685
  O      321.006    -231.285    -190.834
  H      320.299    -231.859    -190.495
  H      318.770    -228.403    -188.768
  H      320.390    -228.003    -189.383
  H      320.110    -229.553    -188.527
  H      320.849    -235.550    -188.278
  H      320.943    -234.177    -189.356
  H      322.220    -235.370    -189.346

 3  4  5  6  7  8  9  10  11  12  22  25  29  30  31  32 0
 6-311+G(2d,p)
 ****
 33  36  37 0
 6-311+G(2d,p)
 ****
 1  2  13  14  15  16  17  18  19  20  21  23  24  26 0
 3-21G
 ****
 27  28  34  35  38  39  40  41  42  43  44  45  46  47  48 0
 3-21G
 ****


