%nproc=1
%NoSave
%Mem=1900MB
#P OB98/GEN NMR

erre ene a

0 1
  C     -498.989     117.907    -267.067
  O     -498.592     117.032    -266.030
  H     -498.531     117.566    -268.001
  H     -498.654     118.925    -266.860
  H     -500.077     117.888    -267.184
  P     -499.039     117.378    -264.528
  C     -499.960     115.059    -263.856
  O     -498.925     116.018    -263.690
  C     -500.365     114.454    -262.501
  O     -499.329     113.521    -262.075
  C     -500.534     115.496    -261.381
  O     -501.519     114.994    -260.474
  C     -499.155     115.472    -260.747
  O     -499.158     116.109    -259.492
  C     -498.858     113.971    -260.782
  N     -497.449     113.674    -260.585
  C     -497.098     113.143    -259.337
  O     -497.955     112.976    -258.474
  N     -495.779     112.864    -259.087
  C     -494.879     113.147    -259.980
  N     -493.588     112.850    -259.662
  C     -495.203     113.753    -261.288
  C     -496.493     113.988    -261.520
  O     -500.342     118.094    -264.388
  O     -497.828     118.255    -263.960
  H     -499.787     115.667    -258.876
  H     -498.086     119.193    -263.922
  H     -494.413     113.982    -261.986
  H     -496.826     114.433    -262.455
  H     -499.439     113.435    -260.017
  H     -498.434     116.017    -261.371
  H     -500.825     116.483    -261.757
  H     -501.285     113.868    -262.635
  H     -493.414     112.443    -258.755
  H     -499.579     114.272    -264.514
  H     -492.808     113.039    -260.272
  H     -500.835     115.523    -264.326
  P     -502.766     115.867    -259.969
  C     -504.545     114.000    -259.873
  O     -503.766     114.930    -259.136
  O     -503.433     116.654    -261.049
  O     -502.156     116.846    -258.852
  H     -502.662     117.681    -258.855
  H     -505.164     113.442    -259.202
  H     -503.897     113.331    -260.400
  H     -505.161     114.526    -260.573

 6  7  8  9  10  11  12  13  14  15  16  26  30  31  32  33  35 0
 6-311+G(2d,p)
 ****
 37  38 0
 6-311+G(2d,p)
 ****
 1  2  3  4  5  17  18  19  20  21  22  23  24  25 0
 3-21G
 ****
 27  28  29  34  36  39  40  41  42  43  44  45  46 0
 3-21G
 ****


