%nproc=1
%NoSave
%Mem=1900MB
#P OB98/GEN NMR

erre ene a

0 1
  C       18.571     410.844      61.384
  O       18.079     411.362      62.609
  P       17.386     412.799      62.676
  C       19.549     413.951      63.619
  O       18.168     413.688      63.744
  C       19.914     415.128      64.531
  O       19.243     416.326      64.090
  C       19.506     414.865      65.978
  O       20.594     414.330      66.717
  C       19.071     416.238      66.454
  O       20.215     417.028      66.830
  C       18.415     416.817      65.179
  N       17.016     416.448      64.887
  C       16.090     416.393      65.926
  O       16.355     416.664      67.092
  N       14.827     415.984      65.574
  C       14.411     415.677      64.310
  O       13.370     415.088      64.047
  C       15.350     416.018      63.237
  C       16.594     416.359      63.568
  O       15.991     412.496      63.395
  O       17.201     413.483      61.359
  H       20.588     416.627      67.634
  H       15.274     412.420      62.738
  H       14.190     415.805      66.344
  H       15.013     415.925      62.212
  H       17.318     416.578      62.788
  H       18.470     417.911      65.173
  H       18.447     416.167      67.344
  H       18.641     414.191      66.012
  H       20.996     415.304      64.466
  H       19.794     414.184      62.578
  H       20.126     413.064      63.898
  P       20.595     412.780      67.112
  C       19.328     412.854      69.337
  O       20.593     412.754      68.714
  O       21.650     411.949      66.457
  O       19.122     412.298      66.707
  H       19.142     411.866      65.829
  H       19.447     412.646      70.405
  H       18.629     412.132      68.908
  H       18.937     413.867      69.217
  H       18.995     409.876      61.551
  H       19.322     411.500      60.995
  H       17.768     410.765      60.682

 3  4  5  6  7  8  9  10  11  12  13  23  28  29  30  31  32 0
 6-311+G(2d,p)
 ****
 33  34 0
 6-311+G(2d,p)
 ****
 1  2  14  15  16  17  18  19  20  21  22  24  25  26  27 0
 3-21G
 ****
 35  36  37  38  39  40  41  42  43  44  45 0
 3-21G
 ****


