%nproc=1
%NoSave
%Mem=1900MB
#P OB98/GEN NMR

erre ene a

0 1
  C      -21.864      94.124    -174.003
  O      -20.505      94.292    -174.355
  H      -22.318      93.343    -174.616
  H      -21.921      93.826    -172.954
  H      -22.408      95.064    -174.132
  P      -20.206      94.762    -175.860
  C      -20.117      97.252    -175.138
  O      -20.729      96.276    -175.965
  C      -19.721      98.470    -175.965
  O      -19.184      99.500    -175.111
  C      -18.647      98.206    -177.016
  O      -19.188      97.604    -178.182
  C      -18.167      99.623    -177.291
  O      -19.091     100.289    -178.172
  C      -18.222     100.256    -175.892
  N      -13.252     101.413    -176.267
  C      -14.292     101.617    -177.106
  N      -15.590     101.300    -176.927
  C      -15.775     100.728    -175.726
  C      -14.820     100.473    -174.757
  C      -13.501     100.837    -175.064
  N      -12.433     100.561    -174.224
  N      -15.391      99.860    -173.657
  C      -16.663      99.727    -173.971
  N      -16.945     100.243    -175.207
  O      -21.279      93.927    -176.711
  O      -18.814      94.522    -176.335
  H      -19.224      99.696    -178.935
  H      -20.848      93.129    -177.073
  H      -14.047     102.094    -178.048
  H      -17.410      99.265    -173.339
  H      -18.573     101.292    -175.921
  H      -17.182      99.656    -177.768
  H      -17.819      97.620    -176.604
  H      -20.631      98.872    -176.432
  H      -19.223      96.825    -174.671
  H      -11.553     100.429    -174.715
  H      -12.644      99.905    -173.483
  H      -20.825      97.539    -174.353
  P      -18.273      97.576    -179.499
  C      -17.647      95.142    -178.890
  O      -17.173      96.427    -179.266
  O      -17.435      98.934    -179.381
  O      -19.015      97.510    -180.789
  H      -17.566      99.474    -180.184
  H      -16.817      94.477    -178.768
  H      -18.297      94.765    -179.651
  H      -18.183      95.216    -177.967

 6  7  8  9  10  11  12  13  14  15  25  28  32  33  34  35 0
 6-311+G(2d,p)
 ****
 36  39  40 0
 6-311+G(2d,p)
 ****
 1  2  3  4  5  16  17  18  19  20  21  22  23  24 0
 3-21G
 ****
 26  27  29  30  31  37  38  41  42  43  44  45  46  47  48 0
 3-21G
 ****


