%nproc=1
%NoSave
%Mem=1900MB
#P OB98/GEN NMR

erre ene a

0 1
  C      -89.853     -18.686    -103.392
  O      -89.557     -18.283    -102.073
  H      -89.049     -19.335    -103.748
  H      -89.911     -17.809    -104.042
  H      -90.795     -19.239    -103.437
  P      -90.718     -17.629    -101.186
  C      -89.977     -18.996     -99.126
  O      -90.248     -17.706     -99.655
  C      -88.841     -18.944     -98.098
  O      -87.587     -18.689     -98.774
  C      -89.062     -17.788     -97.116
  O      -88.486     -18.052     -95.839
  C      -88.311     -16.642     -97.773
  O      -87.950     -15.612     -96.855
  C      -87.123     -17.383     -98.385
  N      -83.710     -13.996    -100.070
  C      -84.066     -14.303     -98.773
  N      -83.448     -13.604     -97.795
  N      -84.960     -15.207     -98.463
  C      -85.551     -15.775     -99.542
  C      -85.299     -15.532    -100.873
  C      -84.281     -14.562    -101.203
  O      -83.937     -14.234    -102.337
  N      -86.114     -16.288    -101.682
  C      -86.858     -16.980    -100.844
  N      -86.545     -16.713     -99.532
  O      -91.896     -18.715    -101.241
  O      -91.195     -16.281    -101.634
  H      -87.538     -14.894     -97.369
  H      -92.757     -18.291    -101.087
  H      -83.003     -13.304    -100.254
  H      -87.629     -17.687    -101.130
  H      -86.327     -17.513     -97.642
  H      -88.967     -16.189     -98.524
  H      -82.890     -12.787     -97.991
  H      -90.119     -17.556     -96.987
  H      -83.899     -13.605     -96.878
  H      -88.742     -19.914     -97.594
  H      -89.691     -19.638     -99.968
  H      -90.881     -19.420     -98.681
  P      -89.306     -17.585     -94.543
  C      -89.432     -19.986     -93.491
  O      -89.015     -18.637     -93.372
  O      -90.831     -17.859     -94.949
  O      -89.073     -16.161     -94.164
  H      -91.282     -17.016     -95.148
  H      -89.147     -20.526     -92.612
  H      -88.968     -20.428     -94.348
  H      -90.496     -20.022     -93.603

 6  7  8  9  10  11  12  13  14  15  26  29  33  34 0
 6-311+G(2d,p)
 ****
 36  38  39  40  41 0
 6-311+G(2d,p)
 ****
 1  2  3  4  5  16  17  18  19  20  21  22  23  24  25 0
 3-21G
 ****
 27  28  30  31  32  35  37  42  43  44  45  46  47 0
 3-21G
 ****
 48  49 0
 3-21G
 ****


