%nproc=1
%NoSave
%Mem=1900MB
#P OB98/GEN NMR

erre ene a

0 1
  C     -143.894    1557.519     -74.420
  O     -143.194    1558.745     -74.585
  H     -144.413    1557.289     -75.351
  H     -144.624    1557.610     -73.617
  H     -143.191    1556.719     -74.196
  P     -142.452    1559.324     -73.281
  C     -140.207    1558.794     -74.519
  O     -141.008    1559.758     -73.843
  C     -139.659    1559.390     -75.813
  O     -140.724    1559.621     -76.765
  C     -138.969    1560.743     -75.640
  O     -137.655    1560.646     -75.111
  C     -138.957    1561.210     -77.092
  O     -137.939    1560.488     -77.819
  C     -140.371    1560.798     -77.548
  N     -141.370    1561.873     -77.346
  C     -141.270    1562.978     -78.201
  O     -140.397    1563.036     -79.063
  N     -142.158    1564.012     -78.030
  C     -143.068    1563.949     -77.115
  N     -143.918    1565.004     -76.989
  C     -143.213    1562.794     -76.194
  C     -142.341    1561.799     -76.377
  O     -142.111    1558.007     -72.428
  O     -143.180    1560.378     -72.521
  H     -137.128    1560.511     -77.262
  H     -141.520    1558.242     -71.677
  H     -143.978    1562.780     -75.443
  H     -142.385    1560.914     -75.747
  H     -140.378    1560.506     -78.604
  H     -138.725    1562.271     -77.205
  H     -139.585    1561.438     -75.057
  H     -138.982    1558.651     -76.262
  H     -143.746    1565.803     -77.585
  H     -140.848    1557.927     -74.744
  H     -144.561    1565.109     -76.215
  H     -139.385    1558.479     -73.886
  P     -137.009    1561.979     -74.500
  C     -137.668    1561.292     -72.056
  O     -136.619    1561.656     -72.975
  O     -138.268    1562.965     -74.356
  O     -135.911    1562.581     -75.315
  H     -137.993    1563.889     -74.519
  H     -137.248    1561.110     -71.089
  H     -138.157    1560.406     -72.405
  H     -138.379    1562.089     -71.992

 6  7  8  9  10  11  12  13  14  15  16  26  30  31  32  33  35 0
 6-311+G(2d,p)
 ****
 37  38 0
 6-311+G(2d,p)
 ****
 1  2  3  4  5  17  18  19  20  21  22  23  24  25 0
 3-21G
 ****
 27  28  29  34  36  39  40  41  42  43  44  45  46 0
 3-21G
 ****


