%nproc=1
%NoSave
%Mem=1900MB
#P OB98/GEN NMR

erre ene a

0 1
  C     -579.860     531.600    -344.984
  O     -580.425     530.341    -345.338
  P     -580.902     530.113    -346.851
  C     -583.489     529.617    -346.583
  O     -582.447     530.475    -346.998
  C     -584.770     529.956    -347.352
  O     -584.518     529.954    -348.774
  C     -585.906     528.982    -347.094
  O     -586.671     529.325    -345.958
  C     -586.696     529.066    -348.389
  O     -587.507     530.257    -348.406
  C     -585.560     529.175    -349.438
  N     -584.953     527.920    -349.948
  C     -585.362     527.400    -351.168
  O     -586.209     527.915    -351.886
  N     -584.742     526.249    -351.575
  C     -583.668     525.656    -350.974
  O     -583.111     524.654    -351.424
  C     -583.174     526.333    -349.767
  C     -583.832     527.396    -349.310
  O     -580.867     528.519    -347.024
  O     -580.050     530.805    -347.876
  H     -586.907     531.020    -348.311
  H     -580.190     528.263    -347.684
  H     -585.079     525.818    -352.418
  H     -582.290     525.926    -349.289
  H     -583.484     527.902    -348.406
  H     -585.883     529.746    -350.309
  H     -587.392     528.224    -348.496
  H     -585.513     527.960    -347.009
  H     -585.083     530.977    -347.065
  H     -583.660     529.714    -345.510
  H     -583.199     528.574    -346.772
  P     -586.264     528.734    -344.518
  C     -588.248     527.150    -344.203
  O     -586.861     527.244    -344.480
  O     -586.583     529.591    -343.338
  O     -584.686     528.456    -344.664
  H     -584.170     529.215    -344.286
  H     -588.572     526.107    -344.349
  H     -588.824     527.790    -344.872
  H     -588.441     527.421    -343.152
  H     -579.595     531.593    -343.947
  H     -580.575     532.375    -345.164
  H     -578.986     531.777    -345.575

 3  4  5  6  7  8  9  10  11  12  13  23  28  29  30  31  32 0
 6-311+G(2d,p)
 ****
 33  34 0
 6-311+G(2d,p)
 ****
 1  2  14  15  16  17  18  19  20  21  22  24  25  26  27 0
 3-21G
 ****
 35  36  37  38  39  40  41  42  43  44  45 0
 3-21G
 ****


