%nproc=1
%NoSave
%Mem=1900MB
#P OB98/GEN NMR

erre ene a

0 1
  C      -17.603     717.340    -655.644
  O      -17.350     715.950    -655.522
  P      -15.889     715.424    -655.126
  C      -17.049     713.206    -654.542
  O      -15.935     713.809    -655.181
  C      -17.561     712.004    -655.326
  O      -18.208     712.451    -656.549
  C      -16.452     711.000    -655.756
  O      -17.041     709.688    -655.711
  C      -16.169     711.396    -657.189
  O      -15.548     710.356    -657.943
  C      -17.588     711.750    -657.657
  N      -18.340     711.881    -662.736
  C      -18.376     710.856    -661.834
  N      -18.143     710.907    -660.495
  C      -17.850     712.163    -660.099
  C      -17.762     713.292    -660.902
  C      -18.038     713.137    -662.260
  N      -18.052     714.169    -663.194
  N      -17.381     714.395    -660.129
  C      -17.246     713.912    -658.915
  N      -17.579     712.601    -658.827
  O      -15.324     715.978    -653.863
  O      -14.987     715.806    -656.386
  H      -15.540     710.616    -658.877
  H      -14.405     716.567    -656.159
  H      -18.615     709.892    -662.256
  H      -16.917     714.488    -658.047
  H      -18.192     710.857    -657.879
  H      -15.509     712.259    -657.219
  H      -15.562     711.031    -655.122
  H      -18.333     711.488    -654.728
  H      -17.860     713.956    -654.491
  H      -18.392     713.968    -664.118
  H      -18.084     715.125    -662.833
  H      -16.791     712.918    -653.517
  P      -16.479     708.583    -654.693
  C      -18.809     707.849    -653.965
  O      -17.617     707.446    -654.591
  O      -15.948     709.107    -653.402
  O      -15.319     707.854    -655.567
  H      -14.737     707.352    -654.954
  H      -18.685     707.833    -652.867
  H      -19.615     707.146    -654.250
  H      -19.103     708.848    -654.259
  H      -18.627     717.494    -655.913
  H      -16.970     717.753    -656.401
  H      -17.403     717.822    -654.710

 3  4  5  6  7  8  9  10  11  12  22  25  29  30  31  32 0
 6-311+G(2d,p)
 ****
 33  36  37 0
 6-311+G(2d,p)
 ****
 1  2  13  14  15  16  17  18  19  20  21  23  24  26 0
 3-21G
 ****
 27  28  34  35  38  39  40  41  42  43  44  45  46  47  48 0
 3-21G
 ****


