%nproc=1
%NoSave
%Mem=1900MB
#P OB98/GEN NMR

erre ene a

0 1
  C      -45.033    -725.198      19.871
  O      -46.285    -724.783      20.409
  P      -46.254    -723.539      21.445
  C      -48.232    -722.339      20.254
  O      -47.718    -722.887      21.457
  C      -49.751    -722.532      20.181
  O      -50.092    -723.904      19.921
  C      -50.480    -722.178      21.457
  O      -50.672    -720.773      21.595
  C      -51.821    -722.885      21.241
  O      -52.677    -722.049      20.430
  C      -51.408    -724.144      20.481
  N      -54.093    -727.587      23.058
  C      -54.523    -726.501      22.317
  N      -55.862    -726.319      22.223
  N      -53.708    -725.664      21.710
  C      -52.413    -725.985      21.870
  C      -51.859    -727.029      22.574
  C      -52.760    -727.931      23.269
  O      -52.429    -728.891      23.963
  N      -50.488    -727.026      22.497
  C      -50.210    -726.008      21.714
  N      -51.343    -725.334      21.317
  O      -45.371    -722.455      20.667
  O      -45.674    -723.885      22.778
  H      -52.259    -721.964      19.554
  H      -44.930    -721.865      21.311
  H      -54.763    -728.196      23.500
  H      -49.211    -725.718      21.394
  H      -52.077    -724.357      19.639
  H      -52.362    -723.071      22.178
  H      -56.543    -726.976      22.606
  H      -49.983    -722.603      22.342
  H      -56.199    -725.560      21.649
  H      -50.124    -721.910      19.342
  H      -47.764    -722.832      19.396
  H      -47.962    -721.281      20.204
  P      -50.227    -720.099      22.989
  C      -48.914    -717.998      22.189
  O      -50.130    -718.519      22.689
  O      -48.702    -720.558      23.137
  O      -51.059    -720.504      24.154
  H      -48.465    -720.616      24.092
  H      -48.501    -718.647      21.411
  H      -48.193    -717.913      23.013
  H      -49.110    -717.021      21.763
  H      -45.186    -726.022      19.205
  H      -44.385    -725.499      20.667
  H      -44.588    -724.385      19.336

 3  4  5  6  7  8  9  10  11  12  23  26  30  31  33  0
 6-311+G(2d,p)
 ****
 35  36  37  38 0
 6-311+G(2d,p)
 ****
 1  2  13  14  15  16  17  18  19  20  21  22  24  25  27  28  29 0
 3-21G
 ****
 32  34  39  40  41  42  43  44  45  46  47  48  49 0
 3-21G
 ****


