%nproc=1
%NoSave
%Mem=1900MB
#P OB98/GEN NMR

erre ene a

0 1
  C      -52.253     -97.885     -26.168
  O      -52.194     -98.915     -25.199
  H      -52.925     -98.201     -26.971
  H      -51.266     -97.691     -26.593
  H      -52.651     -96.972     -25.718
  P      -51.065     -98.817     -24.062
  C      -50.516     -97.053     -22.262
  O      -51.135     -97.303     -23.521
  C      -50.046     -95.602     -22.156
  O      -48.969     -95.345     -23.082
  C      -51.111     -94.576     -22.503
  O      -52.191     -94.517     -21.600
  C      -50.277     -93.328     -22.747
  O      -49.939     -92.654     -21.536
  C      -49.004     -93.933     -23.390
  N      -48.942     -93.694     -24.828
  C      -48.540     -92.421     -25.217
  O      -48.269     -91.521     -24.422
  N      -48.490     -92.199     -26.566
  C      -48.841     -93.089     -27.537
  O      -48.793     -92.820     -28.732
  C      -49.296     -94.406     -27.065
  C      -49.323     -94.647     -25.751
  O      -49.690     -99.250     -24.474
  O      -51.670     -99.663     -22.847
  H      -49.318     -91.939     -21.772
  H      -50.972     -99.883     -22.183
  H      -48.186     -91.286     -26.869
  H      -49.593     -95.134     -27.807
  H      -49.653     -95.613     -25.377
  H      -48.105     -93.495     -22.936
  H      -50.790     -92.607     -23.387
  H      -51.549     -94.849     -23.473
  H      -49.657     -95.446     -21.144
  H      -49.650     -97.719     -22.178
  H      -51.220     -97.282     -21.456
  P      -53.677     -94.120     -22.018
  C      -55.297     -95.021     -23.862
  O      -53.965     -94.695     -23.488
  O      -54.108     -92.723     -21.713
  O      -54.553     -95.114     -21.093
  H      -55.371     -94.635     -20.852
  H      -55.306     -95.387     -24.867
  H      -55.910     -94.147     -23.796
  H      -55.678     -95.774     -23.205

 6  7  8  9  10  11  12  13  14  15  16  26  31  32  33  34  35 0
 6-311+G(2d,p)
 ****
 36  37 0
 6-311+G(2d,p)
 ****
 1  2  3  4  5  17  18  19  20  21  22  23  24  25 0
 3-21G
 ****
 27  28  29  30  38  39  40  41  42  43  44  45 0
 3-21G
 ****


