%nproc=1
%NoSave
%Mem=1900MB
#P OB98/GEN NMR

erre ene a

0 1
  C      -39.768      15.481      37.259
  O      -38.881      16.488      37.704
  H      -40.339      15.114      38.117
  H      -39.220      14.644      36.819
  H      -40.467      15.894      36.526
  P      -37.754      17.006      36.683
  C      -37.308      19.248      35.481
  O      -37.995      18.589      36.543
  C      -38.222      20.256      34.781
  O      -39.289      19.568      34.096
  C      -38.916      21.218      35.733
  O      -38.050      22.151      36.344
  C      -40.088      21.714      34.899
  O      -39.762      22.820      34.064
  C      -40.407      20.476      34.028
  N      -41.654      19.833      34.424
  C      -42.820      20.462      34.002
  O      -42.831      21.508      33.352
  N      -43.991      19.870      34.388
  C      -44.103      18.766      35.181
  O      -45.185      18.307      35.528
  C      -42.836      18.160      35.619
  C      -41.685      18.712      35.227
  O      -37.685      16.286      35.370
  O      -36.403      16.920      37.534
  H      -40.579      23.074      33.591
  H      -35.610      16.956      36.948
  H      -44.846      20.305      34.082
  H      -42.887      17.284      36.251
  H      -40.736      18.284      35.538
  H      -40.503      20.769      32.974
  H      -40.924      22.027      35.531
  H      -39.350      20.631      36.551
  H      -37.631      20.797      34.033
  H      -36.998      18.483      34.761
  H      -36.417      19.747      35.873
  P      -38.383      22.883      37.724
  C      -37.031      23.890      39.701
  O      -37.001      23.394      38.367
  O      -39.384      22.220      38.613
  O      -39.041      24.261      37.200
  H      -39.731      24.517      37.841
  H      -36.046      24.191      39.992
  H      -37.378      23.121      40.360
  H      -37.691      24.730      39.754

 6  7  8  9  10  11  12  13  14  15  16  26  31  32  33  34  35 0
 6-311+G(2d,p)
 ****
 36  37 0
 6-311+G(2d,p)
 ****
 1  2  3  4  5  17  18  19  20  21  22  23  24  25 0
 3-21G
 ****
 27  28  29  30  38  39  40  41  42  43  44  45 0
 3-21G
 ****


