%nproc=1
%NoSave
%Mem=1900MB
#P OB98/GEN NMR

erre ene a

0 1
  C      249.420    -455.931     297.809
  O      250.720    -455.378     297.832
  H      249.196    -456.342     298.795
  H      249.376    -456.740     297.075
  H      248.679    -455.165     297.565
  P      251.207    -454.575     296.529
  C      252.740    -452.487     296.326
  O      252.504    -453.733     296.967
  C      253.669    -451.618     297.178
  O      252.888    -450.992     298.229
  C      254.805    -452.403     297.837
  O      255.987    -451.592     297.818
  C      254.337    -452.580     299.273
  O      255.417    -452.757     300.188
  C      253.516    -451.300     299.486
  N      252.532    -451.470     300.555
  C      252.977    -451.229     301.863
  O      254.146    -450.892     302.067
  N      252.106    -451.417     302.901
  C      250.922    -451.899     302.673
  N      250.115    -452.095     303.748
  C      250.436    -452.237     301.319
  C      251.282    -451.993     300.316
  O      250.087    -453.448     296.346
  O      251.391    -455.400     295.300
  H      256.113    -452.099     299.973
  H      249.955    -453.228     295.406
  H      249.451    -452.660     301.178
  H      251.014    -452.215     299.290
  H      254.179    -450.458     299.745
  H      253.691    -453.459     299.336
  H      255.013    -453.359     297.352
  H      254.063    -450.810     296.546
  H      250.487    -451.872     304.662
  H      251.784    -451.968     296.202
  H      249.190    -452.508     303.694
  H      253.180    -452.666     295.338
  P      256.955    -451.762     296.555
  C      258.733    -450.329     295.311
  O      257.820    -450.419     296.394
  O      255.955    -451.722     295.309
  O      257.761    -453.027     296.579
  H      255.871    -452.612     294.918
  H      259.229    -449.381     295.341
  H      258.201    -450.425     294.387
  H      259.457    -451.113     295.389

 6  7  8  9  10  11  12  13  14  15  16  26  30  31  32  33  35 0
 6-311+G(2d,p)
 ****
 37  38 0
 6-311+G(2d,p)
 ****
 1  2  3  4  5  17  18  19  20  21  22  23  24  25 0
 3-21G
 ****
 27  28  29  34  36  39  40  41  42  43  44  45  46 0
 3-21G
 ****


