%nproc=1
%NoSave
%Mem=1900MB
#P OB98/GEN NMR

erre ene a

0 1
  C     -715.391      -0.639    -750.567
  O     -716.484      -0.129    -749.828
  H     -714.935       0.182    -751.129
  H     -715.746      -1.392    -751.275
  H     -714.638      -1.072    -749.903
  P     -717.086      -1.080    -748.685
  C     -718.628      -3.178    -748.650
  O     -717.974      -2.194    -749.444
  C     -719.627      -3.966    -749.501
  O     -720.806      -3.170    -749.767
  C     -719.090      -4.397    -750.866
  O     -718.329      -5.599    -750.763
  C     -720.382      -4.633    -751.614
  O     -720.961      -5.896    -751.215
  C     -721.258      -3.472    -751.112
  N     -723.529      -0.725    -754.733
  C     -723.873      -1.955    -754.205
  N     -724.975      -2.548    -754.721
  N     -723.201      -2.561    -753.255
  C     -722.105      -1.866    -752.857
  C     -721.656      -0.638    -753.303
  C     -722.428       0.017    -754.337
  O     -722.170       1.125    -754.822
  N     -720.509      -0.251    -752.650
  C     -720.251      -1.257    -751.829
  N     -721.195      -2.262    -751.916
  O     -718.182      -0.142    -747.979
  O     -716.102      -1.605    -747.693
  H     -721.835      -5.962    -751.655
  H     -717.814       0.189    -747.136
  H     -724.079      -0.294    -755.459
  H     -719.416      -1.293    -751.152
  H     -722.320      -3.749    -751.046
  H     -720.243      -4.674    -752.699
  H     -725.532      -2.142    -755.470
  H     -718.517      -3.591    -751.352
  H     -725.244      -3.443    -754.358
  H     -719.950      -4.847    -748.915
  H     -719.162      -2.687    -747.831
  H     -717.871      -3.860    -748.236
  P     -717.155      -5.834    -751.835
  C     -716.954      -6.967    -754.161
  O     -717.809      -6.579    -753.108
  O     -716.274      -6.978    -751.142
  O     -716.320      -4.630    -752.163
  H     -715.407      -6.623    -750.870
  H     -717.527      -7.445    -754.928
  H     -716.217      -7.648    -753.790
  H     -716.470      -6.102    -754.564

 6  7  8  9  10  11  12  13  14  15  26  29  33  34 0
 6-311+G(2d,p)
 ****
 36  38  39  40  41 0
 6-311+G(2d,p)
 ****
 1  2  3  4  5  16  17  18  19  20  21  22  23  24  25 0
 3-21G
 ****
 27  28  30  31  32  35  37  42  43  44  45  46  47 0
 3-21G
 ****
 48  49 0
 3-21G
 ****


