%nproc=1
%NoSave
%Mem=1900MB
#P OB98/GEN NMR

erre ene a

0 1
  C      -15.169      68.173     231.911
  O      -14.801      67.208     230.939
  P      -14.193      67.650     229.520
  C      -16.297      66.690     228.375
  O      -15.463      67.824     228.558
  C      -17.765      67.096     228.524
  O      -17.968      67.704     229.815
  C      -18.240      68.122     227.503
  O      -18.466      67.518     226.238
  C      -19.481      68.670     228.202
  O      -20.589      67.772     228.031
  C      -19.037      68.674     229.680
  N      -18.611      69.994     230.141
  C      -18.893      70.307     231.473
  O      -19.466      69.504     232.208
  N      -18.492      71.525     231.959
  C      -17.877      72.367     231.180
  N      -17.441      73.532     231.738
  C      -17.609      72.098     229.759
  C      -17.994      70.903     229.310
  O      -13.125      66.756     228.988
  O      -13.716      69.159     229.743
  H      -20.426      67.008     228.619
  H      -12.790      69.240     230.078
  H      -17.110      72.835     229.149
  H      -17.813      70.618     228.280
  H      -19.852      68.321     230.323
  H      -19.788      69.654     227.838
  H      -17.498      68.921     227.392
  H      -18.383      66.186     228.471
  H      -17.492      73.598     232.748
  H      -16.053      65.946     229.145
  H      -16.727      74.093     231.296
  H      -16.108      66.254     227.389
  P      -17.721      68.153     224.969
  C      -20.021      68.654     223.876
  O      -18.770      69.168     224.306
  O      -17.644      66.929     223.940
  O      -16.374      68.726     225.268
  H      -16.750      66.536     223.951
  H      -20.693      69.491     223.678
  H      -20.466      68.022     224.656
  H      -19.892      68.080     222.959
  H      -15.550      67.677     232.779
  H      -15.923      68.816     231.508
  H      -14.311      68.754     232.179

 3  4  5  6  7  8  9  10  11  12  13  23  27  28  29  30  32 0
 6-311+G(2d,p)
 ****
 34  35 0
 6-311+G(2d,p)
 ****
 1  2  14  15  16  17  18  19  20  21  22  24  25  26 0
 3-21G
 ****
 31  33  36  37  38  39  40  41  42  43  44  45  46 0
 3-21G
 ****


