%nproc=1
%NoSave
%Mem=1900MB
#P OB98/GEN NMR

erre ene a

0 1
  C       18.472      32.790      -2.132
  O       19.043      33.997      -1.656
  P       18.203      34.846      -0.583
  C       18.513      32.905       1.115
  O       17.611      33.801       0.482
  C       18.542      33.138       2.626
  O       19.505      32.226       3.224
  C       18.939      34.563       3.045
  O       18.194      34.867       4.230
  C       20.417      34.403       3.351
  O       20.965      35.458       4.123
  C       20.412      33.029       4.013
  N       24.581      32.310       6.880
  C       23.398      32.908       7.146
  N       22.330      33.054       6.334
  C       22.566      32.493       5.136
  C       23.726      31.867       4.715
  C       24.771      31.782       5.649
  N       25.981      31.179       5.372
  N       23.608      31.440       3.409
  C       22.396      31.805       3.045
  N       21.722      32.424       4.062
  O       16.912      35.297      -1.411
  O       18.930      36.015       0.005
  H       20.530      35.492       4.997
  H       16.646      36.207      -1.181
  H       23.296      33.326       8.143
  H       21.966      31.657       2.065
  H       20.021      33.068       5.037
  H       20.975      34.375       2.407
  H       18.720      35.316       2.282
  H       17.556      32.884       3.034
  H       19.522      33.069       0.724
  H       26.726      31.346       6.032
  H       26.183      30.978       4.401
  H       18.226      31.875       0.881
  P       17.830      36.398       4.545
  C       15.490      35.592       3.859
  O       16.443      36.633       3.771
  O       18.865      37.159       3.589
  O       17.893      36.801       5.977
  H       18.831      36.816       2.678
  H       14.567      35.922       3.375
  H       15.277      35.359       4.906
  H       15.860      34.702       3.343
  H       19.137      32.334      -2.835
  H       17.538      33.001      -2.609
  H       18.310      32.124      -1.311

 3  4  5  6  7  8  9  10  11  12  22  25  29  30  31  32 0
 6-311+G(2d,p)
 ****
 33  36  37 0
 6-311+G(2d,p)
 ****
 1  2  13  14  15  16  17  18  19  20  21  23  24  26 0
 3-21G
 ****
 27  28  34  35  38  39  40  41  42  43  44  45  46  47  48 0
 3-21G
 ****


