%nproc=1
%NoSave
%Mem=1900MB
#P OB98/GEN NMR

erre ene a

0 1
  C     -407.203       5.330      56.452
  O     -407.200       6.056      55.233
  P     -405.837       6.288      54.422
  C     -406.459       4.312      52.898
  O     -405.465       4.881      53.742
  C     -405.814       3.613      51.704
  O     -406.859       3.116      50.834
  C     -404.923       4.528      50.872
  O     -403.808       3.775      50.389
  C     -405.788       4.916      49.684
  O     -404.983       5.255      48.542
  C     -406.651       3.661      49.518
  N     -409.293       4.100      45.139
  C     -408.007       3.761      45.381
  N     -407.366       3.692      46.568
  C     -408.209       3.958      47.577
  C     -409.545       4.314      47.484
  C     -410.092       4.385      46.191
  N     -411.408       4.718      45.948
  N     -410.078       4.545      48.740
  C     -409.086       4.312      49.570
  N     -407.939       3.944      48.918
  O     -404.734       6.907      55.208
  O     -406.259       7.193      53.175
  H     -404.529       6.097      48.752
  H     -405.564       7.849      52.981
  H     -407.414       3.520      44.505
  H     -409.141       4.405      50.644
  H     -406.145       2.899      48.912
  H     -406.395       5.790      49.940
  H     -404.572       5.402      51.430
  H     -405.250       2.747      52.068
  H     -407.106       5.119      52.537
  H     -411.740       4.624      45.002
  H     -412.042       4.759      46.735
  H     -407.069       3.612      53.476
  P     -402.528       4.636      49.923
  C     -401.851       5.145      52.385
  O     -402.259       5.650      51.132
  O     -402.714       5.226      48.564
  O     -401.366       3.538      50.024
  H     -401.591       2.831      50.667
  H     -401.754       5.981      53.083
  H     -400.875       4.657      52.294
  H     -402.587       4.438      52.772
  H     -408.200       5.284      56.837
  H     -406.569       5.820      57.161
  H     -406.842       4.338      56.277

 3  4  5  6  7  8  9  10  11  12  22  25  29  30  31  32 0
 6-311+G(2d,p)
 ****
 33  36  37 0
 6-311+G(2d,p)
 ****
 1  2  13  14  15  16  17  18  19  20  21  23  24  26 0
 3-21G
 ****
 27  28  34  35  38  39  40  41  42  43  44  45  46  47  48 0
 3-21G
 ****


