%nproc=1
%NoSave
%Mem=1900MB
#P OB98/GEN NMR

erre ene a

0 1
  C     -444.452    -133.878    -602.681
  O     -443.424    -132.922    -602.741
  P     -442.432    -132.870    -604.014
  C     -444.119    -131.551    -605.452
  O     -443.365    -132.765    -605.320
  C     -443.384    -130.591    -606.398
  O     -443.363    -131.102    -607.752
  C     -444.037    -129.228    -606.521
  O     -444.047    -128.407    -605.373
  C     -443.343    -128.675    -607.753
  O     -442.056    -128.138    -607.445
  C     -443.208    -129.953    -608.628
  N     -444.167    -129.982    -609.724
  C     -443.708    -129.477    -610.945
  O     -442.579    -129.041    -611.116
  N     -444.618    -129.471    -611.967
  C     -445.930    -129.859    -611.873
  O     -446.706    -129.789    -612.828
  C     -446.367    -130.362    -610.573
  C     -445.481    -130.399    -609.566
  O     -441.416    -133.966    -604.065
  O     -441.808    -131.400    -603.927
  H     -442.191    -127.323    -606.947
  H     -442.455    -130.676    -603.973
  H     -444.317    -129.095    -612.849
  H     -447.385    -130.697    -610.470
  H     -445.770    -130.766    -608.589
  H     -442.197    -130.020    -609.049
  H     -443.920    -127.865    -608.229
  H     -445.096    -129.380    -606.782
  H     -442.335    -130.511    -606.066
  H     -444.223    -131.082    -604.469
  H     -445.126    -131.780    -605.830
  P     -445.310    -127.500    -604.947
  C     -445.902    -129.043    -602.932
  O     -446.331    -128.422    -604.126
  O     -445.871    -126.586    -605.988
  O     -444.671    -126.598    -603.765
  H     -445.118    -125.735    -603.747
  H     -446.705    -129.670    -602.537
  H     -445.637    -128.284    -602.185
  H     -445.035    -129.686    -603.137
  H     -444.999    -133.757    -601.770
  H     -444.028    -134.860    -602.715
  H     -445.111    -133.745    -603.513

 3  4  5  6  7  8  9  10  11  12  13  23  28  29  30  31  32 0
 6-311+G(2d,p)
 ****
 33  34 0
 6-311+G(2d,p)
 ****
 1  2  14  15  16  17  18  19  20  21  22  24  25  26  27 0
 3-21G
 ****
 35  36  37  38  39  40  41  42  43  44  45 0
 3-21G
 ****


