%nproc=1
%NoSave
%Mem=1900MB
#P OB98/GEN NMR

erre ene a

0 1
  C     -118.736     253.785     -14.819
  O     -119.964     253.894     -15.520
  P     -121.329     253.845     -14.685
  C     -122.121     256.304     -14.990
  O     -121.601     255.318     -14.110
  C     -123.480     256.810     -14.489
  O     -123.387     257.095     -13.060
  C     -123.963     258.092     -15.180
  O     -125.397     258.026     -15.258
  C     -123.558     259.173     -14.191
  O     -124.270     260.386     -14.363
  C     -123.849     258.449     -12.871
  N     -123.205     259.081     -11.720
  C     -123.937     260.039     -11.020
  O     -125.085     260.374     -11.315
  N     -123.287     260.655      -9.986
  C     -121.974     260.483      -9.649
  O     -121.415     261.154      -8.789
  C     -121.247     259.467     -10.421
  C     -121.882     258.818     -11.404
  O     -120.934     252.993     -13.388
  O     -122.484     253.242     -15.419
  H     -125.219     260.190     -14.266
  H     -121.236     252.073     -13.480
  H     -123.806     261.342      -9.464
  H     -120.207     259.287     -10.164
  H     -121.367     258.074     -12.003
  H     -124.931     258.396     -12.694
  H     -122.489     259.388     -14.302
  H     -123.533     258.246     -16.175
  H     -124.216     256.007     -14.614
  H     -122.246     255.871     -15.983
  H     -121.411     257.134     -15.075
  P     -126.120     258.843     -16.439
  C     -125.585     257.009     -18.220
  O     -125.462     258.354     -17.816
  O     -125.505     260.308     -16.212
  O     -127.618     258.808     -16.362
  H     -124.550     260.286     -16.029
  H     -126.548     256.579     -17.923
  H     -124.777     256.421     -17.783
  H     -125.502     256.957     -19.314
  H     -117.923     253.835     -15.513
  H     -118.704     252.850     -14.299
  H     -118.654     254.587     -14.116

 3  4  5  6  7  8  9  10  11  12  13  23  28  29  30  31  32 0
 6-311+G(2d,p)
 ****
 33  34 0
 6-311+G(2d,p)
 ****
 1  2  14  15  16  17  18  19  20  21  22  24  25  26 0
 3-21G
 ****
 27  35  36  37  38  39  40  41  42  43  44  45 0
 3-21G
 ****


