%nproc=1
%NoSave
%Mem=1900MB
#P OB98/GEN NMR

erre ene a

0 1
  C     -310.122    -100.737     328.270
  O     -310.375    -101.893     329.076
  P     -309.607    -103.273     328.786
  C     -311.768    -104.594     328.424
  O     -310.568    -104.500     329.183
  C     -312.459    -105.962     328.542
  O     -311.721    -106.978     327.815
  C     -312.639    -106.472     329.975
  O     -313.858    -107.216     329.977
  C     -311.442    -107.397     330.139
  O     -311.596    -108.313     331.214
  C     -311.361    -108.020     328.737
  N     -310.042    -108.572     328.453
  C     -309.714    -109.785     329.059
  O     -310.498    -110.313     329.847
  N     -308.485    -110.344     328.799
  C     -307.628    -109.700     328.078
  N     -306.420    -110.294     327.876
  C     -307.899    -108.374     327.483
  C     -309.116    -107.883     327.700
  O     -308.228    -103.354     329.355
  O     -309.558    -103.354     327.183
  H     -310.915    -109.012     331.120
  H     -308.757    -103.842     326.911
  H     -307.141    -107.861     326.907
  H     -309.414    -106.923     327.305
  H     -312.101    -108.827     328.634
  H     -310.538    -106.800     330.340
  H     -312.657    -105.675     330.720
  H     -313.438    -105.876     328.056
  H     -306.262    -111.189     328.324
  H     -311.533    -104.403     327.373
  H     -305.640    -109.830     327.428
  H     -312.458    -103.805     328.747
  P     -315.196    -106.647     330.649
  C     -316.488    -108.689     331.503
  O     -316.327    -107.765     330.443
  O     -315.590    -105.277     330.211
  O     -314.914    -106.701     332.230
  H     -315.553    -106.124     332.682
  H     -317.410    -109.253     331.345
  H     -316.547    -108.171     332.465
  H     -315.644    -109.389     331.517
  H     -310.724     -99.923     328.615
  H     -310.365    -100.953     327.251
  H     -309.088    -100.472     328.342

 3  4  5  6  7  8  9  10  11  12  13  23  27  28  29  30  32 0
 6-311+G(2d,p)
 ****
 34  35 0
 6-311+G(2d,p)
 ****
 1  2  14  15  16  17  18  19  20  21  22  24  25  26 0
 3-21G
 ****
 31  33  36  37  38  39  40  41  42  43  44  45  46 0
 3-21G
 ****


