%nproc=1
%NoSave
%Mem=1900MB
#P OB98/GEN NMR

erre ene a

0 1
  C     -226.970     252.016     -62.914
  O     -227.961     253.008     -63.104
  H     -226.489     251.818     -63.875
  H     -227.421     251.088     -62.551
  H     -226.213     252.364     -62.209
  P     -228.848     253.450     -61.846
  C     -227.736     255.778     -61.733
  O     -227.987     254.551     -61.058
  C     -227.382     256.871     -60.728
  O     -227.096     258.107     -61.409
  C     -228.490     257.181     -59.722
  O     -228.483     256.237     -58.665
  C     -228.071     258.568     -59.268
  O     -226.969     258.464     -58.345
  C     -227.591     259.201     -60.588
  N     -230.311     263.470     -60.927
  C     -229.446     263.048     -59.936
  N     -229.310     263.865     -58.870
  N     -228.784     261.921     -59.980
  C     -229.072     261.174     -61.070
  C     -229.922     261.477     -62.109
  C     -230.597     262.757     -62.081
  O     -231.353     263.181     -62.951
  N     -230.029     260.432     -62.992
  C     -229.204     259.520     -62.515
  N     -228.603     259.918     -61.342
  O     -229.355     252.340     -60.975
  O     -230.038     254.305     -62.484
  H     -227.346     258.233     -57.475
  H     -230.812     253.744     -62.676
  H     -230.799     264.345     -60.834
  H     -229.001     258.562     -62.976
  H     -226.760     259.897     -60.431
  H     -228.870     259.107     -58.757
  H     -229.902     264.667     -58.709
  H     -229.468     257.246     -60.210
  H     -228.727     263.544     -58.107
  H     -226.461     256.568     -60.214
  H     -228.643     256.043     -62.283
  H     -226.916     255.659     -62.449
  P     -229.434     256.407     -57.381
  C     -231.368     255.265     -58.663
  O     -230.931     256.413     -57.959
  O     -229.100     257.565     -56.505
  O     -229.367     254.990     -56.650
  H     -228.593     254.908     -56.038
  H     -232.377     255.409     -58.988
  H     -231.318     254.412     -58.019
  H     -230.739     255.107     -59.514

 6  7  8  9  10  11  12  13  14  15  26  29  33  34 0
 6-311+G(2d,p)
 ****
 36  38  39  40  41 0
 6-311+G(2d,p)
 ****
 1  2  3  4  5  16  17  18  19  20  21  22  23  24  25 0
 3-21G
 ****
 27  28  30  31  32  35  37  42  43  44  45  46  47 0
 3-21G
 ****
 48  49 0
 3-21G
 ****


