%nproc=1
%NoSave
%Mem=1900MB
#P OB98/GEN NMR

erre ene a

0 1
  C     -203.992     102.182    -892.590
  O     -203.651     102.666    -893.870
  H     -203.965     101.083    -892.610
  H     -205.007     102.496    -892.330
  H     -203.284     102.539    -891.840
  P     -203.461     104.257    -894.020
  C     -205.625     104.540    -895.480
  O     -204.933     104.840    -894.280
  C     -207.021     105.192    -895.470
  O     -206.863     106.631    -895.540
  C     -207.905     104.766    -896.660
  O     -209.266     104.684    -896.200
  C     -207.758     105.912    -897.640
  O     -208.854     105.986    -898.540
  C     -207.613     107.111    -896.670
  N     -206.965     108.252    -897.310
  C     -207.747     108.991    -898.220
  O     -208.909     108.647    -898.460
  N     -207.178     110.059    -898.860
  C     -205.926     110.339    -898.660
  N     -205.408     111.395    -899.350
  C     -205.056     109.558    -897.760
  C     -205.640     108.561    -897.100
  O     -202.740     104.372    -895.440
  O     -202.712     104.889    -892.890
  H     -208.830     106.859    -899.000
  H     -203.140     103.804    -896.120
  H     -204.006     109.829    -897.640
  H     -205.076     107.948    -896.410
  H     -208.604     107.426    -896.310
  H     -206.836     105.792    -898.230
  H     -207.598     103.793    -897.080
  H     -207.502     104.964    -894.510
  H     -206.041     111.889    -900.000
  H     -205.728     103.452    -895.590
  H     -204.434     111.669    -899.330
  H     -205.033     104.909    -896.320
  P     -209.821     103.324    -895.580
  C     -210.505     102.430    -897.920
  O     -209.787     102.181    -896.710
  O     -211.098     103.421    -894.820
  O     -208.620     102.872    -894.600
  H     -209.021     102.520    -893.790
  H     -210.397     101.593    -898.578
  H     -210.115     103.307    -898.392
  H     -211.541     102.577    -897.696

 6  7  8  9  10  11  12  13  14  15  16  26  30  31  32  33  35 0
 6-311+G(2d,p)
 ****
 37  38 0
 6-311+G(2d,p)
 ****
 1  2  3  4  5  17  18  19  20  21  22  23  24  25 0
 3-21G
 ****
 27  28  29  34  36  39  40  41  42  43  44  45  46 0
 3-21G
 ****


