%nproc=1
%NoSave
%Mem=1900MB
#P OB98/GEN NMR

erre ene a

0 1
  C      -56.900      33.187    -100.504
  O      -56.272      33.789     -99.393
  H      -57.948      32.997    -100.256
  H      -56.420      32.232    -100.733
  H      -56.856      33.845    -101.376
  P      -54.763      34.300     -99.585
  C      -52.423      33.177     -99.661
  O      -53.828      32.994     -99.558
  C      -51.694      32.246     -98.690
  O      -51.976      32.671     -97.331
  C      -52.108      30.777     -98.819
  O      -50.949      29.958     -98.640
  C      -53.060      30.569     -97.655
  O      -53.127      29.205     -97.238
  C      -52.487      31.533     -96.610
  N      -53.497      31.923     -95.630
  C      -53.639      31.097     -94.511
  O      -52.937      30.090     -94.390
  N      -54.608      31.392     -93.586
  C      -55.423      32.375     -93.802
  N      -56.383      32.601     -92.863
  C      -55.355      33.235     -95.002
  C      -54.373      32.959     -95.861
  O      -54.434      35.015     -98.192
  O      -54.536      35.200    -100.755
  H      -53.519      28.678     -97.968
  H      -53.813      35.759     -98.314
  H      -56.074      34.027     -95.151
  H      -54.249      33.528     -96.773
  H      -51.642      31.070     -96.079
  H      -54.069      30.881     -97.948
  H      -52.574      30.543     -99.781
  H      -50.615      32.363     -98.843
  H      -56.408      31.980     -92.063
  H      -52.180      34.213     -99.406
  H      -57.095      33.309     -92.949
  H      -52.104      32.982    -100.690
  P      -50.377      29.224     -99.947
  C      -50.956      27.107    -101.334
  O      -51.342      27.990    -100.290
  O      -49.037      28.524     -99.419
  O      -50.104      30.151    -101.085
  H      -48.256      28.988     -99.776
  H      -51.694      26.340    -101.444
  H      -50.013      26.662    -101.094
  H      -50.870      27.654    -102.250

 6  7  8  9  10  11  12  13  14  15  16  26  30  31  32  33  35 0
 6-311+G(2d,p)
 ****
 37  38 0
 6-311+G(2d,p)
 ****
 1  2  3  4  5  17  18  19  20  21  22  23  24  25 0
 3-21G
 ****
 27  28  29  34  36  39  40  41  42  43  44  45  46 0
 3-21G
 ****


