%nproc=1
%NoSave
%Mem=1900MB
#P OB98/GEN NMR

erre ene a

0 1
  C      -72.133     -44.116     179.345
  O      -71.537     -45.181     178.632
  H      -71.846     -44.194     180.397
  H      -73.220     -44.183     179.272
  H      -71.790     -43.155     178.955
  P      -71.759     -45.202     177.043
  C      -69.289     -45.636     176.383
  O      -70.373     -44.719     176.386
  C      -68.163     -45.144     177.290
  O      -68.653     -45.088     178.663
  C      -66.912     -46.037     177.286
  O      -65.764     -45.192     177.430
  C      -67.069     -46.845     178.564
  O      -65.832     -47.376     179.032
  C      -67.693     -45.789     179.475
  N      -66.718     -47.902     183.935
  C      -65.865     -47.356     182.996
  N      -64.547     -47.374     183.288
  N      -66.269     -46.836     181.868
  C      -67.616     -46.855     181.722
  C      -68.566     -47.369     182.571
  C      -68.103     -47.966     183.806
  O      -68.807     -48.483     184.667
  N      -69.827     -47.220     182.049
  C      -69.638     -46.617     180.890
  N      -68.314     -46.375     180.647
  O      -72.740     -43.959     176.810
  O      -72.319     -46.469     176.492
  H      -65.167     -46.657     179.005
  H      -73.669     -44.258     176.810
  H      -66.354     -48.302     184.782
  H      -70.417     -46.340     180.193
  H      -66.954     -45.063     179.838
  H      -67.761     -47.680     178.401
  H      -64.167     -47.715     184.157
  H      -66.805     -46.661     176.393
  H      -63.909     -46.939     182.631
  H      -67.909     -44.117     177.004
  H      -68.909     -45.734     175.360
  H      -69.643     -46.614     176.726
  P      -65.020     -44.700     176.100
  C      -65.183     -42.106     176.198
  O      -65.683     -43.314     175.644
  O      -65.554     -45.727     174.993
  O      -63.531     -44.710     176.189
  H      -64.891     -45.824     174.284
  H      -65.727     -41.277     175.795
  H      -64.146     -42.004     175.955
  H      -65.300     -42.126     177.261

 6  7  8  9  10  11  12  13  14  15  26  29  33  34 0
 6-311+G(2d,p)
 ****
 36  38  39  40  41 0
 6-311+G(2d,p)
 ****
 1  2  3  4  5  16  17  18  19  20  21  22  23  24  25 0
 3-21G
 ****
 27  28  30  31  32  35  37  42  43  44  45  46  47 0
 3-21G
 ****
 48  49 0
 3-21G
 ****


