%nproc=1
%NoSave
%Mem=1900MB
#P OB98/GEN NMR

erre ene a

0 1
  C     -194.078    -288.422     -11.182
  O     -193.320    -288.363     -12.373
  P     -193.200    -286.995     -13.200
  C     -193.393    -288.387     -15.366
  O     -192.633    -287.420     -14.644
  C     -192.594    -288.929     -16.551
  O     -192.323    -287.883     -17.501
  C     -191.237    -289.510     -16.171
  O     -191.387    -290.797     -15.598
  C     -190.525    -289.492     -17.518
  O     -190.879    -290.640     -18.309
  C     -191.075    -288.199     -18.157
  N     -190.127    -287.093     -18.078
  C     -189.234    -286.979     -19.152
  O     -189.252    -287.798     -20.070
  N     -188.309    -285.963     -19.128
  C     -188.265    -285.154     -18.116
  N     -187.318    -284.175     -18.151
  C     -189.169    -285.260     -16.954
  C     -190.063    -286.244     -17.001
  O     -192.460    -285.896     -12.517
  O     -194.730    -286.630     -13.513
  H     -190.440    -290.519     -19.172
  H     -195.193    -286.291     -12.709
  H     -189.085    -284.569     -16.128
  H     -190.764    -286.399     -16.186
  H     -191.319    -288.366     -19.216
  H     -189.437    -289.502     -17.406
  H     -190.724    -288.834     -15.478
  H     -193.205    -289.695     -17.050
  H     -186.697    -284.157     -18.951
  H     -194.303    -287.904     -15.733
  H     -187.173    -283.519     -17.400
  H     -193.682    -289.198     -14.688
  P     -190.479    -291.224     -14.354
  C     -189.619    -293.453     -15.296
  O     -190.424    -292.825     -14.316
  O     -190.818    -290.567     -13.056
  O     -188.997    -290.827     -14.816
  H     -188.540    -290.385     -14.076
  H     -189.401    -294.472     -14.969
  H     -188.681    -292.913     -15.439
  H     -190.167    -293.491     -16.242
  H     -194.036    -289.413     -10.781
  H     -195.095    -288.166     -11.394
  H     -193.677    -287.732     -10.470

 3  4  5  6  7  8  9  10  11  12  13  23  27  28  29  30  32 0
 6-311+G(2d,p)
 ****
 34  35 0
 6-311+G(2d,p)
 ****
 1  2  14  15  16  17  18  19  20  21  22  24  25  26 0
 3-21G
 ****
 31  33  36  37  38  39  40  41  42  43  44  45  46 0
 3-21G
 ****


