%nproc=1
%NoSave
%Mem=1900MB
#P OB98/GEN NMR

erre ene a

0 1
  C      483.720     277.553    -219.047
  O      485.012     278.104    -219.198
  H      482.984     278.278    -219.400
  H      483.527     277.342    -217.992
  H      483.625     276.637    -219.635
  P      486.254     277.161    -218.819
  C      486.743     276.453    -221.267
  O      486.337     276.041    -219.972
  C      487.923     275.616    -221.757
  O      487.470     274.242    -221.961
  C      488.535     276.098    -223.082
  O      489.947     275.856    -223.032
  C      487.930     275.146    -224.101
  O      488.695     275.065    -225.302
  C      487.898     273.857    -223.283
  N      487.741     269.188    -225.158
  C      488.789     269.897    -224.601
  N      489.981     269.265    -224.530
  N      488.677     271.117    -224.149
  C      487.420     271.617    -224.253
  C      486.300     271.022    -224.789
  C      486.446     269.677    -225.311
  O      485.561     269.009    -225.834
  N      485.221     271.870    -224.736
  C      485.685     272.967    -224.167
  N      487.014     272.861    -223.857
  O      485.705     276.356    -217.548
  O      487.532     277.871    -218.524
  H      488.307     274.359    -225.859
  H      485.969     276.806    -216.724
  H      487.885     268.257    -225.504
  H      485.109     273.860    -223.964
  H      488.888     273.392    -223.200
  H      486.913     275.468    -224.364
  H      490.130     268.310    -224.812
  H      488.347     277.149    -223.311
  H      490.751     269.751    -224.081
  H      488.681     275.584    -220.967
  H      487.047     277.506    -221.224
  H      485.902     276.354    -221.958
  P      490.923     277.122    -222.921
  C      490.924     277.958    -220.457
  O      490.370     278.079    -221.762
  O      490.586     277.949    -224.254
  O      492.373     276.777    -222.843
  H      491.361     278.468    -224.527
  H      490.452     278.661    -219.803
  H      491.975     278.156    -220.496
  H      490.762     276.966    -220.091

 6  7  8  9  10  11  12  13  14  15  26  29  33  34 0
 6-311+G(2d,p)
 ****
 36  38  39  40  41 0
 6-311+G(2d,p)
 ****
 1  2  3  4  5  16  17  18  19  20  21  22  23  24  25 0
 3-21G
 ****
 27  28  30  31  32  35  37  42  43  44  45  46  47 0
 3-21G
 ****
 48  49 0
 3-21G
 ****


