%nproc=1
%NoSave
%Mem=1900MB
#P OB98/GEN NMR

erre ene a

0 1
  C      967.547    -301.433      -8.361
  O      967.769    -302.083      -7.120
  P      969.201    -301.940      -6.395
  C      968.298    -302.495      -4.047
  O      969.182    -302.893      -5.091
  C      968.120    -303.639      -3.054
  O      967.315    -304.700      -3.648
  C      969.412    -304.313      -2.629
  O      970.108    -303.519      -1.673
  C      968.890    -305.645      -2.088
  O      968.425    -305.478      -0.740
  C      967.735    -305.933      -3.034
  N      968.949    -310.817      -3.940
  C      968.821    -310.120      -2.774
  N      968.530    -308.805      -2.624
  C      968.389    -308.202      -3.829
  C      968.523    -308.779      -5.065
  C      968.792    -310.158      -5.122
  N      968.866    -310.899      -6.275
  N      968.323    -307.828      -6.062
  C      968.095    -306.706      -5.423
  N      968.062    -306.896      -4.061
  O      969.661    -300.546      -6.155
  O      970.202    -302.715      -7.390
  H      969.211    -305.224      -0.197
  H      970.881    -302.089      -7.690
  H      968.973    -310.687      -1.874
  H      967.925    -305.739      -5.886
  H      966.859    -306.337      -2.492
  H      969.669    -306.430      -2.084
  H      970.037    -304.505      -3.502
  H      967.589    -303.267      -2.178
  H      967.327    -302.240      -4.489
  H      968.910    -311.899      -6.181
  H      968.443    -310.509      -7.124
  H      968.714    -301.610      -3.542
  P      971.688    -303.356      -1.793
  C      971.722    -302.331       0.580
  O      972.264    -303.318      -0.305
  O      972.178    -302.241      -2.682
  O      972.193    -304.783      -2.325
  H      972.988    -304.661      -2.889
  H      972.172    -301.376       0.341
  H      971.938    -302.615       1.595
  H      970.621    -302.284       0.445
  H      966.551    -301.634      -8.696
  H      968.246    -301.797      -9.084
  H      967.677    -300.378      -8.239

 3  4  5  6  7  8  9  10  11  12  22  25  29  30  31  32 0
 6-311+G(2d,p)
 ****
 33  36  37 0
 6-311+G(2d,p)
 ****
 1  2  13  14  15  16  17  18  19  20  21  23  24  26 0
 3-21G
 ****
 27  28  34  35  38  39  40  41  42  43  44  45  46  47  48 0
 3-21G
 ****


