%nproc=1
%NoSave
%Mem=1900MB
#P OB98/GEN NMR

erre ene a

0 1
  C     1286.167    -433.770     785.625
  O     1285.604    -434.066     786.892
  H     1285.757    -434.423     784.862
  H     1285.947    -432.724     785.370
  H     1287.257    -433.895     785.671
  P     1285.784    -435.553     787.440
  C     1283.796    -436.478     786.050
  O     1284.349    -436.277     787.345
  C     1282.749    -437.593     786.088
  O     1283.441    -438.840     786.397
  C     1281.656    -437.393     787.161
  O     1280.361    -437.413     786.523
  C     1281.745    -438.630     788.054
  O     1280.480    -439.154     788.436
  C     1282.561    -439.624     787.203
  N     1282.041    -443.287     790.695
  C     1281.182    -442.813     789.777
  N     1281.402    -441.913     788.800
  C     1282.699    -441.505     788.817
  C     1283.696    -441.947     789.678
  C     1283.341    -442.862     790.665
  N     1284.194    -443.311     791.628
  N     1284.900    -441.301     789.387
  C     1284.594    -440.485     788.382
  N     1283.287    -440.563     788.033
  O     1286.007    -435.351     789.016
  O     1286.914    -436.325     786.817
  H     1279.932    -439.164     787.622
  H     1286.771    -435.866     789.304
  H     1280.162    -443.193     789.853
  H     1285.278    -439.786     787.923
  H     1281.890    -440.200     786.522
  H     1282.328    -438.362     788.961
  H     1281.767    -436.477     787.747
  H     1282.311    -437.704     785.105
  H     1284.596    -436.755     785.359
  H     1283.807    -443.877     792.379
  H     1285.117    -442.916     791.675
  H     1283.333    -435.535     785.714
  P     1279.714    -435.980     786.220
  C     1277.859    -436.439     787.982
  O     1278.165    -436.046     786.662
  O     1279.606    -435.947     784.610
  O     1280.487    -434.825     786.756
  H     1279.645    -435.043     784.290
  H     1276.798    -436.433     788.119
  H     1278.311    -435.757     788.671
  H     1278.236    -437.425     788.157

 6  7  8  9  10  11  12  13  14  15  25  28  32  33  34  35 0
 6-311+G(2d,p)
 ****
 36  39  40 0
 6-311+G(2d,p)
 ****
 1  2  3  4  5  16  17  18  19  20  21  22  23  24 0
 3-21G
 ****
 26  27  29  30  31  37  38  41  42  43  44  45  46  47  48 0
 3-21G
 ****


