%nproc=1
%NoSave
%Mem=1900MB
#P OB98/GEN NMR

erre ene a

0 1
  C      234.816     169.970    -146.698
  O      234.972     169.469    -145.372
  P      235.212     167.892    -145.190
  C      237.352     167.799    -143.724
  O      236.796     167.703    -145.032
  C      238.757     168.393    -143.780
  O      238.713     169.748    -144.288
  C      239.471     168.485    -142.435
  O      240.068     167.246    -142.060
  C      240.538     169.510    -142.738
  O      241.635     168.896    -143.445
  C      239.798     170.491    -143.663
  N      240.912     175.053    -141.616
  C      241.687     174.107    -142.186
  N      241.326     172.913    -142.704
  C      239.999     172.720    -142.544
  C      239.078     173.576    -141.940
  C      239.582     174.806    -141.477
  N      238.793     175.780    -140.910
  N      237.810     173.035    -141.968
  C      237.957     171.869    -142.565
  N      239.258     171.636    -142.946
  O      234.921     167.303    -146.661
  O      234.366     167.239    -144.149
  H      241.433     168.955    -144.399
  H      234.670     166.366    -146.600
  H      242.747     174.340    -142.256
  H      237.152     171.174    -142.773
  H      240.437     170.876    -144.468
  H      240.966     169.963    -141.832
  H      238.796     168.863    -141.656
  H      239.355     167.795    -144.488
  H      237.408     166.802    -143.286
  H      239.187     176.700    -140.773
  H      237.777     175.668    -141.000
  H      236.699     168.433    -143.098
  P      239.446     166.496    -140.792
  C      239.373     164.175    -141.969
  O      238.642     165.234    -141.380
  O      238.289     167.493    -140.300
  O      240.431     166.191    -139.710
  H      238.115     167.379    -139.346
  H      238.723     163.294    -142.037
  H      240.240     163.920    -141.369
  H      239.685     164.445    -142.981
  H      234.665     171.029    -146.664
  H      233.970     169.504    -147.158
  H      235.696     169.754    -147.267

 3  4  5  6  7  8  9  10  11  12  22  25  29  30  31  32 0
 6-311+G(2d,p)
 ****
 33  36  37 0
 6-311+G(2d,p)
 ****
 1  2  13  14  15  16  17  18  19  20  21  23  24  26 0
 3-21G
 ****
 27  28  34  35  38  39  40  41  42  43  44  45  46  47  48 0
 3-21G
 ****


