%nproc=1
%NoSave
%Mem=1900MB
#P OB98/GEN NMR

erre ene a

0 1
  C       33.260      28.867      -4.913
  O       32.358      29.831      -5.430
  P       31.397      30.593      -4.391
  C       29.179      30.264      -5.719
  O       30.164      31.167      -5.243
  C       28.752      30.637      -7.140
  O       28.123      31.944      -7.105
  C       29.896      30.711      -8.156
  O       29.356      30.313      -9.423
  C       30.229      32.191      -8.189
  O       30.909      32.576      -9.379
  C       28.840      32.798      -8.022
  N       29.394      37.681      -9.212
  C       29.494      36.558     -10.013
  N       29.714      36.778     -11.327
  N       29.385      35.334      -9.567
  C       29.150      35.274      -8.235
  C       29.070      36.307      -7.333
  C       29.153      37.656      -7.844
  O       28.984      38.679      -7.186
  N       28.912      35.847      -6.053
  C       28.815      34.540      -6.193
  N       28.908      34.148      -7.501
  O       32.240      31.898      -4.020
  O       30.993      29.806      -3.185
  H       31.840      32.286      -9.299
  H       32.766      31.759      -3.208
  H       29.467      38.599      -9.616
  H       28.674      33.834      -5.391
  H       28.281      32.833      -8.966
  H       30.874      32.442      -7.337
  H       29.776      37.694     -11.743
  H       30.756      30.089      -7.895
  H       29.758      35.974     -11.941
  H       27.992      29.918      -7.470
  H       28.303      30.320      -5.065
  H       29.571      29.242      -5.685
  P       30.365      29.705     -10.509
  C       30.355      31.645     -12.224
  O       29.970      30.317     -11.933
  O       29.889      28.178     -10.621
  O       31.810      29.784     -10.138
  H       30.657      27.610     -10.819
  H       30.382      31.774     -13.309
  H       31.344      31.876     -11.818
  H       29.621      32.337     -11.805
  H       33.830      28.446      -5.715
  H       32.710      28.092      -4.421
  H       33.920      29.335      -4.213

 3  4  5  6  7  8  9  10  11  12  23  26  30  31 0
 6-311+G(2d,p)
 ****
 33  35  36  37  38 0
 6-311+G(2d,p)
 ****
 1  2  13  14  15  16  17  18  19  20  21  22  24  25 0
 3-21G
 ****
 27  28  29  32  34  39  40  41  42  43  44  45  46  47  48  49 0
 3-21G
 ****


