%nproc=1
%NoSave
%Mem=1900MB
#P OB98/GEN NMR

erre ene a

0 1
  C     -232.124     250.519     106.841
  O     -232.283     250.274     105.459
  H     -231.272     249.935     107.204
  H     -233.017     250.207     107.388
  H     -231.925     251.579     107.028
  P     -233.382     251.110     104.647
  C     -235.388     249.622     105.284
  O     -234.540     250.079     104.236
  C     -236.427     248.652     104.726
  O     -237.293     248.184     105.785
  C     -237.346     249.269     103.678
  O     -236.678     249.408     102.439
  C     -238.492     248.268     103.689
  O     -238.160     247.095     102.927
  C     -238.590     247.925     105.196
  N     -239.640     248.681     105.884
  C     -240.949     248.305     105.603
  O     -241.239     247.397     104.828
  N     -241.925     249.044     106.220
  C     -241.721     250.153     106.993
  O     -242.624     250.911     107.339
  C     -240.317     250.459     107.311
  C     -239.356     249.728     106.739
  O     -232.862     251.952     103.530
  O     -234.084     252.005     105.777
  H     -233.727     252.912     105.737
  H     -238.125     247.375     101.991
  H     -242.881     248.811     105.987
  H     -240.115     251.291     107.974
  H     -238.312     249.954     106.937
  H     -238.794     246.855     105.334
  H     -239.408     248.679     103.261
  H     -237.720     250.239     104.029
  H     -235.896     247.784     104.314
  H     -235.897     250.489     105.722
  H     -234.778     249.139     106.055
  P     -236.646     250.810     101.668
  C     -239.137     251.381     101.481
  O     -237.982     250.926     100.789
  O     -235.386     251.087     100.917
  O     -236.874     251.900     102.819
  H     -236.159     252.563     102.778
  H     -239.965     251.421     100.805
  H     -238.953     252.358     101.878
  H     -239.362     250.707     102.281

 6  7  8  9  10  11  12  13  14  15  16  27  31  32  33  34  35 0
 6-311+G(2d,p)
 ****
 36  37 0
 6-311+G(2d,p)
 ****
 1  2  3  4  5  17  18  19  20  21  22  23  24  25 0
 3-21G
 ****
 26  28  29  30  38  39  40  41  42  43  44  45 0
 3-21G
 ****


