%nproc=1
%NoSave
%Mem=1900MB
#P OB98/GEN NMR

erre ene a

0 1
  C      -87.137    -111.651       8.186
  O      -85.801    -111.197       8.368
  P      -84.654    -111.551       7.303
  C      -83.377    -109.416       7.971
  O      -83.997    -110.146       6.908
  C      -83.829    -107.958       7.933
  O      -85.196    -107.887       8.419
  C      -83.038    -106.995       8.831
  O      -81.840    -106.497       8.250
  C      -84.044    -105.857       8.972
  O      -84.029    -105.038       7.784
  C      -85.369    -106.607       9.077
  N      -87.289    -104.408      13.291
  C      -87.020    -103.920      12.046
  N      -86.499    -104.569      10.986
  C      -86.279    -105.857      11.283
  C      -86.498    -106.495      12.501
  C      -87.028    -105.709      13.536
  N      -87.318    -106.215      14.790
  N      -86.122    -107.833      12.422
  C      -85.703    -107.989      11.189
  N      -85.780    -106.832      10.460
  O      -85.111    -112.401       6.162
  O      -83.507    -112.248       8.179
  H      -84.142    -105.643       7.023
  H      -82.891    -112.736       7.596
  H      -87.260    -102.867      11.896
  H      -85.334    -108.917      10.776
  H      -86.192    -106.087       8.565
  H      -83.819    -105.195       9.816
  H      -82.851    -107.435       9.819
  H      -83.819    -107.616       6.890
  H      -82.292    -109.467       7.831
  H      -87.818    -105.614      15.423
  H      -87.281    -107.215      14.917
  H      -83.622    -109.884       8.934
  P      -80.492    -106.666       9.102
  C      -79.786    -108.194       7.089
  O      -79.739    -107.939       8.485
  O      -80.687    -106.687      10.588
  O      -79.603    -105.426       8.592
  H      -79.312    -105.481       7.671
  H      -79.083    -109.002       6.863
  H      -79.489    -107.297       6.515
  H      -80.794    -108.502       6.803
  H      -87.743    -111.311       9.000
  H      -87.149    -112.720       8.155
  H      -87.524    -111.263       7.267

 3  4  5  6  7  8  9  10  11  12  22  25  29  30  31  32 0
 6-311+G(2d,p)
 ****
 33  36  37 0
 6-311+G(2d,p)
 ****
 1  2  13  14  15  16  17  18  19  20  21  23  24  26 0
 3-21G
 ****
 27  28  34  35  38  39  40  41  42  43  44  45  46  47  48 0
 3-21G
 ****


