%nproc=1
%NoSave
%Mem=1900MB
#P OB98/GEN NMR

erre ene a

0 1
  C       69.484     -20.171     -28.363
  O       68.346     -20.474     -27.581
  H       69.448     -19.131     -28.696
  H       70.380     -20.313     -27.752
  H       69.536     -20.838     -29.229
  P       66.916     -20.292     -28.286
  C       66.778     -17.765     -27.681
  O       66.849     -18.744     -28.708
  C       65.870     -16.626     -28.133
  O       66.439     -15.965     -29.286
  C       64.480     -17.082     -28.561
  O       63.605     -17.268     -27.461
  C       64.047     -15.903     -29.416
  O       63.657     -14.806     -28.570
  C       65.348     -15.566     -30.160
  N       67.533     -15.433     -34.788
  C       67.643     -14.620     -33.715
  N       67.045     -14.737     -32.512
  C       66.270     -15.831     -32.471
  C       66.064     -16.756     -33.482
  C       66.735     -16.522     -34.694
  N       66.601     -17.330     -35.801
  N       65.182     -17.737     -33.071
  C       64.879     -17.417     -31.830
  N       65.485     -16.256     -31.432
  O       65.878     -20.377     -27.070
  O       66.606     -21.248     -29.389
  H       63.303     -14.108     -29.154
  H       64.970     -20.503     -27.406
  H       68.296     -13.761     -33.841
  H       64.220     -17.984     -31.184
  H       65.455     -14.494     -30.359
  H       63.192     -16.136     -30.055
  H       64.526     -17.979     -29.188
  H       65.812     -15.890     -27.322
  H       67.784     -17.379     -27.485
  H       67.002     -16.998     -36.664
  H       65.899     -18.055     -35.789
  H       66.384     -18.222     -26.769
  P       62.771     -18.641     -27.403
  C       60.628     -17.446     -28.257
  O       61.575     -18.489     -28.462
  O       62.027     -18.546     -25.990
  O       63.598     -19.877     -27.527
  H       61.910     -19.433     -25.599
  H       59.896     -17.470     -29.037
  H       61.130     -16.501     -28.268
  H       60.146     -17.583     -27.312

 6  7  8  9  10  11  12  13  14  15  25  28  32  33  34  35 0
 6-311+G(2d,p)
 ****
 36  39  40 0
 6-311+G(2d,p)
 ****
 1  2  3  4  5  16  17  18  19  20  21  22  23  24 0
 3-21G
 ****
 26  27  29  30  31  37  38  41  42  43  44  45  46  47 0
 3-21G
 ****
 48 0
 3-21G
 ****


