%nproc=1
%NoSave
%Mem=1900MB
#P OB98/GEN NMR

erre ene a

0 1
  C     1211.113     253.903     462.685
  O     1211.454     254.773     461.596
  P     1212.436     254.185     460.482
  C     1214.636     254.984     461.587
  O     1213.858     253.883     461.169
  C     1216.141     254.642     461.613
  O     1216.917     255.764     462.106
  C     1216.456     253.449     462.539
  O     1217.571     252.737     461.956
  C     1216.934     254.107     463.823
  O     1217.697     253.214     464.632
  C     1217.691     255.319     463.251
  N     1221.101     257.751     466.195
  C     1221.210     256.723     465.316
  N     1220.249     256.108     464.577
  C     1219.053     256.701     464.798
  C     1218.768     257.739     465.663
  C     1219.859     258.270     466.385
  N     1219.715     259.291     467.295
  N     1217.424     258.040     465.642
  C     1216.903     257.185     464.773
  N     1217.858     256.382     464.233
  O     1212.743     255.451     459.541
  O     1211.874     253.050     459.677
  H     1217.931     253.699     465.453
  H     1212.268     255.361     458.698
  H     1222.233     256.327     465.182
  H     1215.850     257.102     464.527
  H     1218.709     255.033     462.894
  H     1216.064     254.443     464.402
  H     1215.633     252.753     462.701
  H     1216.470     254.433     460.617
  H     1214.330     255.319     462.588
  H     1220.544     259.599     467.784
  H     1218.806     259.669     467.492
  H     1214.443     255.847     460.916
  P     1217.218     251.504     461.001
  C     1218.045     249.687     462.672
  O     1216.963     250.266     461.984
  O     1218.627     251.143     460.336
  O     1216.165     251.777     459.995
  H     1218.473     250.702     459.481
  H     1217.736     249.456     463.700
  H     1218.918     250.350     462.723
  H     1218.329     248.758     462.177
  H     1210.454     254.413     463.356
  H     1212.003     253.618     463.206
  H     1210.627     253.029     462.304

 3  4  5  6  7  8  9  10  11  12  22  25  29  30  31  32 0
 6-311+G(2d,p)
 ****
 33  36  37 0
 6-311+G(2d,p)
 ****
 1  2  13  14  15  16  17  18  19  20  21  23  24  26 0
 3-21G
 ****
 27  28  34  35  38  39  40  41  42  43  44  45  46  47  48 0
 3-21G
 ****


