%nproc=1
%NoSave
%Mem=1900MB
#P OB98/GEN NMR

erre ene a

0 1
  C      536.062     487.515     429.037
  O      536.364     487.496     430.417
  H      534.979     487.520     428.884
  H      536.485     488.422     428.597
  H      536.505     486.644     428.545
  P      535.734     486.288     431.268
  C      537.997     485.125     431.764
  O      536.741     485.047     431.108
  C      538.208     483.900     432.642
  O      537.294     483.921     433.756
  C      537.964     482.566     431.946
  O      539.063     482.183     431.133
  C      537.805     481.646     433.149
  O      539.104     481.289     433.663
  C      537.070     482.541     434.157
  N      533.277     480.302     436.802
  C      534.615     480.359     437.012
  N      535.560     480.960     436.266
  C      535.012     481.572     435.201
  C      533.671     481.601     434.855
  C      532.781     480.923     435.708
  N      531.423     480.861     435.475
  N      533.476     482.336     433.704
  C      534.682     482.743     433.359
  N      535.644     482.301     434.228
  O      534.461     485.846     430.400
  O      535.350     486.626     432.669
  H      538.955     480.845     434.518
  H      533.745     485.574     431.006
  H      534.969     479.854     437.908
  H      534.901     483.359     432.497
  H      537.484     482.434     435.168
  H      537.281     480.717     432.915
  H      537.029     482.581     431.376
  H      539.228     483.942     433.046
  H      538.026     486.024     432.387
  H      530.821     480.535     436.214
  H      531.059     481.337     434.660
  H      538.785     485.193     431.008
  P      538.792     481.085     429.991
  C      537.860     482.785     428.265
  O      537.585     481.675     429.110
  O      538.107     479.885     430.795
  O      539.999     480.640     429.240
  H      538.254     479.042     430.323
  H      536.969     483.066     427.744
  H      538.617     482.516     427.558
  H      538.202     483.608     428.857

 6  7  8  9  10  11  12  13  14  15  25  28  32  33  34  35 0
 6-311+G(2d,p)
 ****
 36  39  40 0
 6-311+G(2d,p)
 ****
 1  2  3  4  5  16  17  18  19  20  21  22  23  24 0
 3-21G
 ****
 26  27  29  30  31  37  38  41  42  43  44  45  46  47  48 0
 3-21G
 ****


