%nproc=1
%NoSave
%Mem=1900MB
#P OB98/GEN NMR

erre ene a

0 1
  C       95.500      88.406      48.716
  O       94.907      87.504      47.777
  P       94.394      86.072      48.284
  C       92.402      86.284      49.908
  O       92.813      86.149      48.556
  C       90.867      86.288      50.021
  O       90.334      87.507      49.441
  C       90.213      85.094      49.300
  O       89.286      84.383      50.123
  C       89.638      85.716      48.036
  O       88.567      84.964      47.484
  C       89.321      87.150      48.476
  N       89.281      88.080      47.343
  C       88.077      88.747      47.127
  O       87.059      88.533      47.780
  N       88.068      89.627      46.077
  C       89.088      89.849      45.203
  O       89.009      90.615      44.251
  C       90.313      89.067      45.442
  C       90.350      88.232      46.488
  O       95.198      85.444      49.377
  O       94.468      85.175      46.948
  H       88.863      84.035      47.384
  H       94.780      84.283      47.200
  H       87.209      90.133      45.917
  H       91.137      89.196      44.757
  H       91.236      87.639      46.681
  H       88.346      87.204      48.971
  H       90.430      85.752      47.276
  H       90.955      84.335      49.024
  H       90.619      86.273      51.087
  H       92.784      87.222      50.315
  H       92.854      85.487      50.509
  P       89.598      82.990      50.843
  C       90.011      83.518      53.348
  O       89.094      83.085      52.360
  O       90.990      82.465      50.672
  O       88.541      81.985      50.167
  H       88.978      81.122      50.003
  H       89.656      83.183      54.327
  H       90.055      84.613      53.349
  H       91.017      83.115      53.177
  H       95.784      89.307      48.214
  H       96.366      87.951      49.149
  H       94.794      88.634      49.487

 3  4  5  6  7  8  9  10  11  12  13  23  28  29  30  31  32 0
 6-311+G(2d,p)
 ****
 33  34 0
 6-311+G(2d,p)
 ****
 1  2  14  15  16  17  18  19  20  21  22  24  25  26  27 0
 3-21G
 ****
 35  36  37  38  39  40  41  42  43  44  45 0
 3-21G
 ****


