%nproc=1
%NoSave
%Mem=1900MB
#P OB98/GEN NMR

erre ene a

0 1
  C      459.086    -309.560     263.628
  O      460.192    -309.117     262.860
  P      461.520    -308.682     263.644
  C      462.067    -306.692     265.278
  O      461.097    -307.432     264.555
  C      461.779    -305.188     265.164
  O      460.448    -304.907     265.651
  C      462.704    -304.300     265.983
  O      463.974    -304.153     265.361
  C      461.890    -303.022     266.077
  O      462.020    -302.257     264.862
  C      460.455    -303.573     266.197
  N      459.950    -303.566     267.576
  C      459.765    -302.315     268.151
  O      459.999    -301.259     267.569
  N      459.310    -302.320     269.447
  C      459.098    -303.426     270.220
  O      458.735    -303.369     271.391
  C      459.341    -304.717     269.564
  C      459.748    -304.725     268.288
  O      462.373    -308.042     262.448
  O      462.181    -309.811     264.358
  H      461.800    -307.692     261.743
  H      462.956    -302.002     264.796
  H      459.149    -301.426     269.880
  H      459.188    -305.615     270.149
  H      459.946    -305.673     267.793
  H      459.768    -302.984     265.581
  H      462.199    -302.377     266.902
  H      462.834    -304.729     266.987
  H      461.816    -304.915     264.103
  H      463.055    -306.907     264.870
  H      462.046    -307.006     266.331
  P      465.237    -303.954     266.346
  C      466.278    -301.877     267.535
  O      465.390    -302.375     266.560
  O      466.448    -304.344     265.380
  O      465.158    -304.769     267.599
  H      466.347    -303.978     264.486
  H      466.510    -300.833     267.307
  H      467.202    -302.447     267.572
  H      465.792    -301.911     268.518
  H      458.278    -309.815     262.975
  H      458.776    -308.779     264.291
  H      459.369    -310.420     264.198

 3  4  5  6  7  8  9  10  11  12  13  24  28  29  30  31  32 0
 6-311+G(2d,p)
 ****
 33  34 0
 6-311+G(2d,p)
 ****
 1  2  14  15  16  17  18  19  20  21  22  23  25  26  27 0
 3-21G
 ****
 35  36  37  38  39  40  41  42  43  44  45 0
 3-21G
 ****


