%nproc=1
%NoSave
%Mem=1900MB
#P OB98/GEN NMR

erre ene a

0 1
  C     -153.909     520.939    -124.655
  O     -153.569     520.975    -126.033
  P     -152.014     520.955    -126.419
  C     -150.506     522.860    -127.298
  O     -151.520     522.486    -126.384
  C     -150.920     524.085    -128.105
  O     -152.096     523.738    -128.913
  C     -151.296     525.313    -127.254
  O     -150.723     526.489    -127.838
  C     -152.811     525.405    -127.408
  O     -153.286     526.730    -127.201
  C     -152.978     524.876    -128.835
  N     -157.301     526.506    -130.881
  C     -156.044     527.077    -130.910
  N     -155.936     528.280    -131.526
  N     -154.989     526.522    -130.374
  C     -155.232     525.306    -129.824
  C     -156.428     524.645    -129.741
  C     -157.609     525.289    -130.282
  O     -158.767     524.884    -130.208
  N     -156.285     523.415    -129.131
  C     -154.998     523.354    -128.833
  N     -154.323     524.492    -129.194
  O     -152.043     520.607    -127.984
  O     -151.181     519.987    -125.658
  H     -153.086     526.952    -126.271
  H     -151.498     519.809    -128.151
  H     -158.096     526.995    -131.284
  H     -154.512     522.515    -128.330
  H     -152.637     525.624    -129.560
  H     -153.287     524.736    -126.670
  H     -156.700     528.749    -131.977
  H     -150.987     525.232    -126.197
  H     -155.021     528.700    -131.574
  H     -150.125     524.333    -128.815
  H     -150.313     522.018    -127.988
  H     -149.580     523.077    -126.752
  P     -151.031     527.862    -127.082
  C     -152.477     529.949    -127.698
  O     -152.212     528.574    -127.905
  O     -149.742     528.766    -127.418
  O     -151.251     527.714    -125.609
  H     -149.613     529.452    -126.727
  H     -151.697     530.432    -127.098
  H     -153.430     530.054    -127.200
  H     -152.524     530.455    -128.671
  H     -154.974     520.958    -124.550
  H     -153.487     521.789    -124.161
  H     -153.523     520.043    -124.216

 3  4  5  6  7  8  9  10  11  12  23  26  30  31  33  0
 6-311+G(2d,p)
 ****
 35  36  37  38 0
 6-311+G(2d,p)
 ****
 1  2  13  14  15  16  17  18  19  20  21  22  24  25  27  28  29 0
 3-21G
 ****
 32  34  39  40  41  42  43  44  45  46  47  48  49 0
 3-21G
 ****


