%nproc=1
%NoSave
%Mem=1900MB
#P OB98/GEN NMR

erre ene a

0 1
  C      400.972      65.476    -252.019
  O      400.051      64.528    -252.559
  P      399.743      63.189    -251.744
  C      401.242      61.397    -252.831
  O      399.922      61.930    -252.719
  C      401.535      60.962    -254.276
  O      400.655      59.867    -254.664
  C      401.312      62.096    -255.291
  O      402.230      61.976    -256.387
  C      399.917      61.807    -255.824
  O      399.701      62.428    -257.090
  C      399.934      60.275    -255.851
  N      396.128      58.584    -258.832
  C      397.370      59.037    -259.131
  N      398.335      59.449    -258.281
  C      397.923      59.349    -257.002
  C      396.693      58.894    -256.545
  C      395.762      58.510    -257.528
  N      394.497      58.068    -257.224
  N      396.631      58.937    -255.163
  C      397.795      59.451    -254.801
  N      398.615      59.677    -255.867
  O      398.473      63.190    -250.952
  O      401.016      63.060    -250.775
  H      398.802      62.197    -257.386
  H      400.723      62.784    -249.883
  H      397.609      59.076    -260.187
  H      398.078      59.684    -253.784
  H      400.488      59.890    -256.719
  H      399.168      62.180    -255.124
  H      401.390      63.104    -254.867
  H      402.557      60.585    -254.339
  H      401.356      60.548    -252.157
  H      393.856      57.927    -258.003
  H      394.163      58.154    -256.274
  H      401.958      62.154    -252.494
  P      403.400      63.087    -256.452
  C      402.776      63.687    -258.920
  O      403.758      63.260    -258.008
  O      404.548      62.791    -255.538
  O      402.607      64.427    -256.071
  H      401.793      64.577    -256.582
  H      403.245      63.864    -259.888
  H      402.309      64.614    -258.584
  H      402.010      62.913    -259.039
  H      401.061      66.307    -252.687
  H      401.929      65.013    -251.896
  H      400.616      65.818    -251.070

 3  4  5  6  7  8  9  10  11  12  22  25  29  30  31  32 0
 6-311+G(2d,p)
 ****
 33  36  37 0
 6-311+G(2d,p)
 ****
 1  2  13  14  15  16  17  18  19  20  21  23  24  26 0
 3-21G
 ****
 27  28  34  35  38  39  40  41  42  43  44  45  46  47  48 0
 3-21G
 ****


