%nproc=1
%NoSave
%Mem=1900MB
#P OB98/GEN NMR

erre ene a

0 1
  C      -21.182    -283.822     141.955
  O      -20.420    -283.188     142.958
  H      -20.662    -284.730     141.643
  H      -21.278    -283.157     141.092
  H      -22.176    -284.093     142.320
  P      -21.131    -282.103     143.895
  C      -20.089    -279.906     144.759
  O      -20.430    -280.684     143.619
  C      -19.689    -278.480     144.378
  O      -18.443    -278.489     143.648
  C      -20.713    -277.816     143.458
  O      -21.816    -277.216     144.112
  C      -19.860    -276.766     142.750
  O      -19.774    -275.563     143.531
  C      -18.492    -277.446     142.659
  N      -15.807    -277.113     138.326
  C      -15.807    -276.265     139.415
  N      -15.039    -275.158     139.310
  N      -16.514    -276.477     140.495
  C      -17.305    -277.573     140.418
  C      -17.400    -278.481     139.387
  C      -16.573    -278.264     138.217
  O      -16.541    -278.983     137.223
  N      -18.312    -279.469     139.669
  C      -18.820    -279.118     140.834
  N      -18.222    -277.988     141.340
  O      -20.600    -282.469     145.364
  O      -22.628    -282.098     143.849
  H      -19.421    -275.792     144.410
  H      -21.246    -282.176     146.032
  H      -15.223    -276.914     137.533
  H      -19.598    -279.658     141.363
  H      -17.680    -276.746     142.891
  H      -20.286    -276.485     141.783
  H      -14.573    -274.892     138.457
  H      -21.071    -278.529     142.709
  H      -15.217    -274.391     139.962
  H      -19.525    -277.895     145.291
  H      -19.252    -280.411     145.245
  H      -20.918    -279.894     145.472
  P      -23.294    -277.404     143.525
  C      -24.820    -275.843     142.109
  O      -23.510    -276.258     142.426
  O      -24.220    -276.941     144.745
  O      -23.620    -278.785     143.073
  H      -24.518    -277.717     145.255
  H      -24.781    -275.077     141.363
  H      -25.295    -275.460     142.988
  H      -25.378    -276.676     141.736

 6  7  8  9  10  11  12  13  14  15  26  29  33  34 0
 6-311+G(2d,p)
 ****
 36  38  39  40  41 0
 6-311+G(2d,p)
 ****
 1  2  3  4  5  16  17  18  19  20  21  22  23  24  25 0
 3-21G
 ****
 27  28  30  31  32  35  37  42  43  44  45  46  47 0
 3-21G
 ****
 48  49 0
 3-21G
 ****


