%nproc=1
%NoSave
%Mem=1900MB
#P OB98/GEN NMR

erre ene a

0 1
  C      -77.297     254.398     279.410
  O      -77.723     255.190     278.294
  P      -79.072     256.046     278.411
  C      -78.212     258.424     278.928
  O      -78.769     257.558     277.947
  C      -77.192     259.380     278.292
  O      -76.104     258.629     277.673
  C      -77.812     260.260     277.196
  O      -77.175     261.547     277.167
  C      -77.434     259.528     275.922
  O      -77.489     260.388     274.782
  C      -76.041     259.022     276.288
  N      -72.001     256.712     274.130
  C      -72.092     257.767     274.976
  N      -73.198     258.310     275.526
  C      -74.301     257.646     275.138
  C      -74.362     256.546     274.288
  C      -73.143     256.081     273.765
  N      -73.058     255.026     272.884
  N      -75.670     256.136     274.114
  C      -76.386     257.002     274.807
  N      -75.603     257.909     275.467
  O      -79.809     255.917     279.707
  O      -79.955     255.485     277.192
  H      -77.004     261.204     275.006
  H      -80.880     255.379     277.492
  H      -71.145     258.237     275.240
  H      -77.468     257.021     274.851
  H      -75.286     259.813     276.202
  H      -78.130     258.690     275.754
  H      -78.894     260.404     277.286
  H      -76.746     259.999     279.083
  H      -77.734     257.834     279.713
  H      -72.154     254.835     272.471
  H      -73.907     254.645     272.494
  H      -79.021     258.974     279.423
  P      -78.108     262.792     276.731
  C      -79.193     263.250     279.069
  O      -78.310     263.673     278.055
  O      -79.356     262.373     276.019
  O      -77.109     263.654     275.823
  H      -76.243     263.835     276.231
  H      -79.084     263.915     279.932
  H      -78.961     262.225     279.389
  H      -80.226     263.296     278.708
  H      -76.385     253.895     279.163
  H      -78.051     253.675     279.643
  H      -77.137     255.032     280.257

 3  4  5  6  7  8  9  10  11  12  22  25  29  30  31  32 0
 6-311+G(2d,p)
 ****
 33  36  37 0
 6-311+G(2d,p)
 ****
 1  2  13  14  15  16  17  18  19  20  21  23  24  26 0
 3-21G
 ****
 27  28  34  35  38  39  40  41  42  43  44  45  46  47  48 0
 3-21G
 ****


