%nproc=1
%NoSave
%Mem=1900MB
#P OB98/GEN NMR

erre ene a

0 1
  C     -335.668     -14.592     137.526
  O     -336.022     -13.913     138.714
  H     -334.771     -15.186     137.718
  H     -335.454     -13.875     136.727
  H     -336.478     -15.260     137.222
  P     -337.303     -12.950     138.635
  C     -338.130     -14.424     140.578
  O     -338.473     -13.782     139.357
  C     -339.386     -14.704     141.408
  O     -340.070     -13.449     141.646
  C     -340.374     -15.646     140.713
  O     -340.963     -16.508     141.685
  C     -341.431     -14.709     140.158
  O     -342.691     -15.349     139.986
  C     -341.428     -13.587     141.198
  N     -345.567     -10.701     140.453
  C     -345.373     -11.833     141.161
  N     -344.226     -12.533     141.320
  C     -343.207     -11.920     140.692
  C     -343.253     -10.765     139.932
  C     -344.511     -10.146     139.815
  N     -344.726      -9.007     139.074
  N     -342.007     -10.477     139.413
  C     -341.217     -11.432     139.866
  N     -341.903     -12.338     140.631
  O     -337.636     -12.426     137.279
  O     -336.944     -11.840     139.729
  H     -343.089     -15.492     140.870
  H     -336.583     -12.243     140.541
  H     -346.249     -12.238     141.661
  H     -340.156     -11.523     139.658
  H     -342.062     -13.816     142.062
  H     -341.110     -14.328     139.179
  H     -339.904     -16.241     139.927
  H     -339.083     -15.094     142.386
  H     -337.446     -13.793     141.158
  H     -345.657      -8.620     139.056
  H     -343.946      -8.566     138.606
  H     -337.619     -15.360     140.337
  P     -340.816     -18.092     141.489
  C     -339.948     -18.539     143.878
  O     -339.675     -18.628     142.482
  O     -340.713     -18.569     140.079
  O     -342.152     -18.649     142.179
  H     -342.481     -19.411     141.666
  H     -339.116     -18.925     144.429
  H     -340.824     -19.109     144.107
  H     -340.109     -17.515     144.145

 6  7  8  9  10  11  12  13  14  15  25  28  32  33  34  35 0
 6-311+G(2d,p)
 ****
 36  39  40 0
 6-311+G(2d,p)
 ****
 1  2  3  4  5  16  17  18  19  20  21  22  23  24 0
 3-21G
 ****
 26  27  29  30  31  37  38  41  42  43  44  45  46  47 0
 3-21G
 ****
 48 0
 3-21G
 ****


