%nproc=1
%NoSave
%Mem=1900MB
#P OB98/GEN NMR

erre ene a

0 1
  C       20.121      29.027     272.671
  O       18.735      28.963     272.951
  H       20.330      28.419     271.787
  H       20.688      28.627     273.516
  H       20.425      30.058     272.472
  P       18.188      29.971     274.068
  C       16.712      31.511     272.542
  O       17.881      31.372     273.339
  C       16.317      32.982     272.445
  O       16.052      33.529     273.751
  C       17.407      33.885     271.891
  O       17.599      33.718     270.504
  C       16.855      35.254     272.266
  O       15.915      35.730     271.296
  C       16.152      34.966     273.615
  N       16.851      35.581     274.728
  C       16.783      36.980     274.780
  O       16.145      37.598     273.928
  N       17.469      37.634     275.768
  C       18.182      36.958     276.614
  N       18.864      37.671     277.550
  C       18.282      35.485     276.594
  C       17.598      34.865     275.633
  O       19.502      30.285     274.923
  O       17.045      29.452     274.873
  H       16.412      35.826     270.457
  H       20.271      30.529     274.383
  H       18.879      34.967     277.330
  H       17.614      33.785     275.544
  H       15.124      35.351     273.602
  H       17.649      36.002     272.335
  H       18.342      33.731     272.445
  H       15.400      33.050     271.845
  H       18.812      38.682     277.493
  H       15.889      30.924     272.961
  H       19.511      37.261     278.207
  H       16.936      31.109     271.550
  P       18.987      33.179     269.915
  C       17.831      31.049     269.044
  O       18.874      31.577     269.856
  O       20.211      33.682     270.603
  O       18.901      33.576     268.366
  H       18.150      33.186     267.885
  H       17.855      29.980     269.083
  H       17.968      31.372     268.033
  H       16.886      31.398     269.405

 6  7  8  9  10  11  12  13  14  15  16  26  30  31  32  33  35 0
 6-311+G(2d,p)
 ****
 37  38 0
 6-311+G(2d,p)
 ****
 1  2  3  4  5  17  18  19  20  21  22  23  24  25 0
 3-21G
 ****
 27  28  29  34  36  39  40  41  42  43  44  45  46 0
 3-21G
 ****


