%nproc=1
%NoSave
%Mem=1900MB
#P OB98/GEN NMR

erre ene a

0 1
  C       93.510      74.125    -301.011
  O       94.865      74.325    -300.662
  H       93.467      73.440    -301.861
  H       93.054      75.074    -301.301
  H       92.963      73.686    -300.174
  P       95.163      75.291    -299.410
  C       95.825      77.560    -300.500
  O       94.792      76.769    -299.925
  C       95.290      78.945    -300.876
  O       94.344      78.807    -301.964
  C       94.575      79.652    -299.719
  O       94.967      81.028    -299.696
  C       93.101      79.518    -300.058
  O       92.316      80.562    -299.483
  C       93.126      79.481    -301.593
  N       91.953      78.798    -302.137
  C       90.700      79.311    -301.784
  O       90.623      80.287    -301.031
  N       89.569      78.680    -302.238
  C       89.679      77.595    -302.938
  N       88.520      77.004    -303.341
  C       90.976      76.987    -303.297
  C       92.062      77.637    -302.876
  O       96.762      75.302    -299.342
  O       94.503      74.893    -298.130
  H       92.347      80.459    -298.507
  H       97.084      75.684    -298.489
  H       91.015      76.071    -303.868
  H       93.059      77.263    -303.090
  H       93.160      80.499    -302.005
  H       92.725      78.566    -299.672
  H       94.791      79.208    -298.751
  H       96.122      79.547    -301.256
  H       87.648      77.443    -303.070
  H       96.204      77.056    -301.394
  H       88.486      76.142    -303.866
  H       96.639      77.670    -299.775
  P       95.772      81.509    -298.392
  C       93.682      82.910    -297.753
  O       94.687      82.008    -297.312
  O       96.486      82.858    -298.868
  O       96.743      80.495    -297.878
  H       97.418      82.687    -299.098
  H       93.037      83.153    -296.935
  H       93.111      82.453    -298.534
  H       94.141      83.803    -298.122

 6  7  8  9  10  11  12  13  14  15  16  26  30  31  32  33  35 0
 6-311+G(2d,p)
 ****
 37  38 0
 6-311+G(2d,p)
 ****
 1  2  3  4  5  17  18  19  20  21  22  23  24  25 0
 3-21G
 ****
 27  28  29  34  36  39  40  41  42  43  44  45  46 0
 3-21G
 ****


