%nproc=1
%NoSave
%Mem=1900MB
#P OB98/GEN NMR

erre ene a

0 1
  C      -35.194    -130.191     216.816
  O      -34.686    -128.883     216.964
  H      -36.281    -130.161     216.921
  H      -34.785    -130.835     217.600
  H      -34.946    -130.598     215.831
  P      -33.158    -128.640     216.546
  C      -32.198    -129.284     218.865
  O      -32.257    -129.589     217.481
  C      -30.788    -129.529     219.405
  O      -30.546    -130.959     219.445
  C      -29.682    -128.892     218.555
  O      -28.663    -128.387     219.423
  C      -29.135    -130.061     217.752
  O      -27.786    -129.858     217.339
  C      -29.319    -131.212     218.734
  N      -26.661    -135.338     217.592
  C      -26.335    -134.260     218.391
  N      -25.115    -134.278     218.968
  N      -27.138    -133.249     218.606
  C      -28.341    -133.383     217.994
  C      -28.779    -134.396     217.175
  C      -27.869    -135.495     216.922
  O      -28.092    -136.466     216.206
  N      -30.049    -134.151     216.718
  C      -30.376    -132.992     217.261
  N      -29.374    -132.490     218.047
  O      -32.857    -127.170     217.103
  O      -32.870    -128.739     215.084
  H      -27.509    -130.654     216.833
  H      -32.674    -126.566     216.358
  H      -25.999    -136.083     217.450
  H      -31.312    -132.471     217.112
  H      -28.504    -131.272     219.467
  H      -29.749    -130.210     216.855
  H      -24.466    -135.045     218.885
  H      -30.044    -128.085     217.913
  H      -24.868    -133.516     219.588
  H      -30.744    -129.170     220.440
  H      -32.908    -129.924     219.401
  H      -32.478    -128.236     219.019
  P      -28.327    -126.820     219.317
  C      -25.866    -126.943     218.514
  O      -27.209    -126.621     218.181
  O      -27.538    -126.524     220.678
  O      -29.534    -125.952     219.185
  H      -28.101    -126.004     221.281
  H      -25.236    -126.763     217.668
  H      -25.805    -127.975     218.791
  H      -25.546    -126.334     219.333

 6  7  8  9  10  11  12  13  14  15  26  29  33  34 0
 6-311+G(2d,p)
 ****
 36  38  39  40  41 0
 6-311+G(2d,p)
 ****
 1  2  3  4  5  16  17  18  19  20  21  22  23  24  25 0
 3-21G
 ****
 27  28  30  31  32  35  37  42  43  44  45  46  47 0
 3-21G
 ****
 48  49 0
 3-21G
 ****


