%nproc=1
%NoSave
%Mem=1900MB
#P OB98/GEN NMR

erre ene a

0 1
  C      549.568     613.417     798.875
  O      550.812     613.072     799.501
  P      551.604     614.075     800.462
  C      553.946     613.049     800.072
  O      553.126     614.204     799.922
  C      555.348     613.264     799.525
  O      555.360     613.215     798.068
  C      555.965     614.626     799.889
  O      556.452     614.614     801.203
  C      557.039     614.773     798.807
  O      558.216     614.025     799.149
  C      556.335     614.137     797.568
  N      557.117     617.281     793.610
  C      557.931     616.372     794.228
  N      557.643     615.593     795.292
  C      556.372     615.764     795.685
  C      555.425     616.618     795.149
  C      555.851     617.409     794.047
  N      555.033     618.327     793.423
  N      554.233     616.547     795.819
  C      554.452     615.622     796.753
  N      555.725     615.122     796.704
  O      551.510     613.757     801.907
  O      550.989     615.520     800.150
  H      557.932     613.121     799.365
  H      551.066     616.084     800.931
  H      558.936     616.299     793.835
  H      553.711     615.295     797.477
  H      557.042     613.560     796.967
  H      557.337     615.813     798.652
  H      555.220     615.421     799.763
  H      556.003     612.462     799.883
  H      553.482     612.207     799.530
  H      555.409     618.869     792.671
  H      554.095     618.479     793.788
  H      554.001     612.784     801.133
  P      555.802     615.555     802.322
  C      557.382     617.585     802.353
  O      556.132     617.070     801.903
  O      556.113     615.204     803.739
  O      554.232     615.456     802.022
  H      553.727     615.581     802.862
  H      557.310     617.888     803.401
  H      557.623     618.449     801.743
  H      558.176     616.844     802.233
  H      549.227     612.594     798.282
  H      549.709     614.274     798.250
  H      548.840     613.640     799.627

 3  4  5  6  7  8  9  10  11  12  22  25  29  30  31  32 0
 6-311+G(2d,p)
 ****
 33  36  37 0
 6-311+G(2d,p)
 ****
 1  2  13  14  15  16  17  18  19  20  21  23  24  26 0
 3-21G
 ****
 27  28  34  35  38  39  40  41  42  43  44  45  46  47  48 0
 3-21G
 ****


