%nproc=1
%NoSave
%Mem=1900MB
#P OB98/GEN NMR

erre ene a

0 1
  C      131.083    -111.879      67.711
  O      130.096    -111.680      68.712
  P      130.103    -110.282      69.501
  C      132.012    -111.188      70.994
  O      131.564    -110.134      70.152
  C      131.630    -110.923      72.447
  O      131.965    -112.092      73.243
  C      132.345    -109.715      73.078
  O      131.400    -108.952      73.844
  C      133.322    -110.352      74.051
  O      133.657    -109.473      75.121
  C      132.532    -111.590      74.470
  N      134.792    -112.882      78.800
  C      133.868    -111.886      78.550
  N      133.547    -111.087      79.591
  N      133.312    -111.687      77.384
  C      133.704    -112.582      76.444
  C      134.603    -113.616      76.570
  C      135.257    -113.785      77.852
  O      136.148    -114.591      78.111
  N      134.728    -114.315      75.398
  C      133.911    -113.704      74.562
  N      133.302    -112.617      75.133
  O      129.155    -110.577      70.756
  O      129.620    -109.109      68.720
  H      134.237    -109.971      75.727
  H      128.427    -109.927      70.778
  H      135.204    -112.981      79.712
  H      133.753    -113.993      73.529
  H      131.704    -111.310      75.137
  H      134.240    -110.619      73.518
  H      133.912    -111.208      80.523
  H      132.847    -109.063      72.354
  H      132.857    -110.366      79.433
  H      130.540    -110.799      72.505
  H      133.103    -111.272      70.919
  H      131.562    -112.128      70.654
  P      131.526    -107.356      73.730
  C      132.870    -106.906      75.918
  O      132.875    -106.971      74.503
  O      130.366    -106.822      74.693
  O      131.399    -106.837      72.336
  H      130.088    -105.925      74.429
  H      131.940    -107.298      76.346
  H      132.990    -105.865      76.228
  H      133.709    -107.491      76.305
  H      130.957    -112.847      67.273
  H      132.056    -111.810      68.151
  H      130.980    -111.130      66.954

 3  4  5  6  7  8  9  10  11  12  23  26  30  31  33  0
 6-311+G(2d,p)
 ****
 35  36  37  38 0
 6-311+G(2d,p)
 ****
 1  2  13  14  15  16  17  18  19  20  21  22  24  25  27  28  29 0
 3-21G
 ****
 32  34  39  40  41  42  43  44  45  46  47  48  49 0
 3-21G
 ****


