%nproc=1
%NoSave
%Mem=1900MB
#P OB98/GEN NMR

erre ene a

0 1
  C     -862.526    -799.495    -118.556
  O     -862.096    -800.827    -118.364
  P     -863.076    -802.050    -118.666
  C     -861.594    -802.717    -120.679
  O     -862.901    -802.369    -120.245
  C     -861.632    -804.063    -121.449
  O     -862.593    -803.990    -122.509
  C     -860.313    -804.409    -122.095
  O     -859.386    -804.909    -121.136
  C     -860.759    -805.473    -123.123
  O     -860.929    -806.741    -122.520
  C     -862.144    -804.885    -123.559
  N     -862.085    -804.195    -124.847
  C     -861.998    -805.022    -125.976
  O     -861.961    -806.250    -125.848
  N     -861.914    -804.446    -127.224
  C     -861.907    -803.147    -127.318
  N     -861.812    -802.631    -128.574
  C     -861.951    -802.238    -126.156
  C     -862.031    -802.823    -124.958
  O     -864.489    -801.863    -118.220
  O     -862.343    -803.308    -117.990
  H     -860.167    -806.856    -121.912
  H     -862.435    -803.280    -117.006
  H     -861.913    -801.162    -126.288
  H     -862.075    -802.235    -124.060
  H     -862.896    -805.672    -123.613
  H     -860.071    -805.558    -123.941
  H     -859.899    -803.539    -122.604
  H     -861.938    -804.824    -120.724
  H     -861.740    -803.286    -129.352
  H     -860.949    -802.814    -119.798
  H     -861.755    -801.642    -128.759
  H     -861.184    -801.920    -121.303
  P     -857.856    -804.485    -121.195
  C     -858.017    -803.501    -118.818
  O     -857.649    -803.273    -120.170
  O     -857.307    -804.256    -122.556
  O     -857.076    -805.685    -120.473
  H     -856.296    -805.933    -120.991
  H     -857.553    -802.763    -118.186
  H     -857.708    -804.497    -118.493
  H     -859.117    -803.417    -118.720
  H     -861.733    -798.824    -118.301
  H     -863.372    -799.300    -117.931
  H     -862.799    -799.352    -119.581

 3  4  5  6  7  8  9  10  11  12  13  23  27  28  29  30  32 0
 6-311+G(2d,p)
 ****
 34  35 0
 6-311+G(2d,p)
 ****
 1  2  14  15  16  17  18  19  20  21  22  24  25  26 0
 3-21G
 ****
 31  33  36  37  38  39  40  41  42  43  44  45  46 0
 3-21G
 ****


