%nproc=1
%NoSave
%Mem=1900MB
#P OB98/GEN NMR

erre ene a

0 1
  C     -245.469     382.585      -3.934
  O     -246.754     382.821      -4.467
  H     -245.530     382.625      -2.843
  H     -244.767     383.354      -4.273
  H     -245.110     381.595      -4.225
  P     -246.877     382.840      -6.070
  C     -248.861     382.397      -7.660
  O     -248.460     382.807      -6.351
  C     -250.310     381.908      -7.640
  O     -250.375     380.694      -6.841
  C     -251.293     382.911      -7.036
  O     -252.521     382.869      -7.770
  C     -251.525     382.396      -5.618
  O     -252.769     382.804      -5.081
  C     -251.374     380.888      -5.816
  N     -253.091     379.054      -1.373
  C     -253.736     379.542      -2.459
  N     -253.197     379.992      -3.617
  C     -251.862     379.861      -3.600
  C     -251.062     379.379      -2.569
  C     -251.738     378.967      -1.394
  N     -251.092     378.488      -0.284
  N     -249.728     379.437      -2.915
  C     -249.708     379.937      -4.139
  N     -250.975     380.222      -4.588
  O     -246.070     381.808      -6.789
  O     -246.498     384.363      -6.405
  H     -252.813     383.781      -5.126
  H     -246.930     384.980      -5.791
  H     -254.822     379.575      -2.388
  H     -248.815     380.122      -4.736
  H     -252.311     380.416      -6.163
  H     -250.722     382.770      -4.957
  H     -250.905     383.933      -7.037
  H     -250.601     381.628      -8.661
  H     -248.202     381.601      -8.024
  H     -251.651     378.198       0.505
  H     -250.075     378.405      -0.289
  H     -248.764     383.268      -8.325
  P     -252.780     383.975      -8.901
  C     -253.229     383.554     -11.419
  O     -253.649     383.307     -10.081
  O     -251.581     384.737      -9.344
  O     -253.841     384.944      -8.207
  H     -253.661     385.865      -8.468
  H     -253.889     383.055     -12.098
  H     -252.233     383.186     -11.554
  H     -253.249     384.607     -11.611

 6  7  8  9  10  11  12  13  14  15  25  28  32  33  34  35 0
 6-311+G(2d,p)
 ****
 36  39  40 0
 6-311+G(2d,p)
 ****
 1  2  3  4  5  16  17  18  19  20  21  22  23  24 0
 3-21G
 ****
 26  27  29  30  31  37  38  41  42  43  44  45  46  47 0
 3-21G
 ****
 48 0
 3-21G
 ****


