%nproc=1
%NoSave
%Mem=1900MB
#P OB98/GEN NMR

erre ene a

0 1
  C      839.794    -899.330     146.185
  O      840.378    -899.110     147.454
  H      838.936    -900.000     146.302
  H      840.515    -899.800     145.512
  H      839.450    -898.390     145.753
  P      841.666    -898.160     147.550
  C      840.332    -896.530     149.059
  O      841.061    -896.710     147.842
  C      841.164    -895.750     150.063
  O      841.741    -894.570     149.454
  C      840.386    -895.210     151.272
  O      840.024    -896.210     152.211
  C      841.389    -894.220     151.818
  O      842.433    -894.940     152.511
  C      841.917    -893.570     150.514
  N      841.216    -892.330     150.182
  C      841.895    -891.130     150.451
  O      843.010    -891.160     150.940
  N      841.263    -889.940     150.173
  C      840.044    -889.940     149.697
  N      839.492    -888.740     149.449
  C      839.299    -891.170     149.428
  C      839.940    -892.320     149.686
  O      842.622    -898.240     146.414
  O      842.325    -898.530     148.970
  H      842.940    -894.290     153.021
  H      843.142    -897.980     149.070
  H      838.273    -891.120     149.055
  H      839.444    -893.280     149.510
  H      842.988    -893.370     150.594
  H      840.957    -893.510     152.533
  H      839.477    -894.650     150.931
  H      842.003    -896.380     150.381
  H      840.036    -887.900     149.667
  H      840.072    -897.520     149.447
  H      838.518    -888.640     149.155
  H      839.405    -895.970     148.854
  P      838.791    -895.890     153.207
  C      837.313    -897.790     152.195
  O      837.466    -896.410     152.434
  O      838.679    -894.290     153.106
  O      838.950    -896.380     154.592
  H      839.120    -893.880     153.874
  H      836.392    -897.963     151.679
  H      837.303    -898.315     153.128
  H      838.128    -898.141     151.597

 6  7  8  9  10  11  12  13  14  15  16  26  30  31  32  33  35 0
 6-311+G(2d,p)
 ****
 37  38 0
 6-311+G(2d,p)
 ****
 1  2  3  4  5  17  18  19  20  21  22  23  24  25 0
 3-21G
 ****
 27  28  29  34  36  39  40  41  42  43  44  45  46 0
 3-21G
 ****


