%nproc=1
%NoSave
%Mem=1900MB
#P OB98/GEN NMR

erre ene a

0 1
  C      -59.591     328.722    -125.738
  O      -60.492     329.810    -125.737
  H      -59.438     328.394    -124.707
  H      -58.627     329.021    -126.157
  H      -60.003     327.886    -126.312
  P      -60.836     330.526    -127.129
  C      -63.007     331.356    -126.007
  O      -61.876     331.703    -126.799
  C      -63.044     332.209    -124.733
  O      -61.759     332.083    -124.078
  C      -63.289     333.696    -125.028
  O      -64.376     334.247    -124.286
  C      -61.912     334.324    -124.834
  O      -61.931     335.692    -124.477
  C      -61.256     333.402    -123.799
  N      -59.796     333.416    -123.835
  C      -59.154     334.502    -123.245
  O      -59.716     335.434    -122.674
  N      -57.783     334.488    -123.315
  C      -57.019     333.528    -123.907
  O      -55.792     333.566    -123.933
  C      -57.754     332.421    -124.532
  C      -59.088     332.414    -124.469
  O      -61.252     329.618    -128.239
  O      -59.496     331.325    -127.496
  H      -62.195     335.748    -123.538
  H      -59.004     330.837    -128.183
  H      -57.307     335.263    -122.880
  H      -57.180     331.643    -125.020
  H      -59.664     331.611    -124.919
  H      -61.567     333.675    -122.790
  H      -61.363     334.246    -125.781
  H      -63.598     333.842    -126.071
  H      -63.803     331.802    -124.055
  H      -62.929     330.296    -125.748
  H      -63.924     331.515    -126.585
  P      -65.804     334.605    -124.898
  C      -67.206     334.138    -122.731
  O      -66.757     335.074    -123.702
  O      -66.366     333.609    -125.859
  O      -65.526     335.967    -125.719
  H      -66.131     335.960    -126.487
  H      -67.829     334.636    -122.017
  H      -66.362     333.710    -122.231
  H      -67.765     333.364    -123.214

 6  7  8  9  10  11  12  13  14  15  16  26  31  32  33  34  35 0
 6-311+G(2d,p)
 ****
 36  37 0
 6-311+G(2d,p)
 ****
 1  2  3  4  5  17  18  19  20  21  22  23  24  25 0
 3-21G
 ****
 27  28  29  30  38  39  40  41  42  43  44  45 0
 3-21G
 ****


