%nproc=1
%NoSave
%Mem=1900MB
#P OB98/GEN NMR

erre ene a

0 1
  C      286.566     693.512    -658.105
  O      287.663     693.348    -658.999
  P      289.199     693.457    -658.583
  C      289.929     691.100    -659.471
  O      289.762     691.976    -658.359
  C      290.081     689.629    -659.045
  O      288.863     689.169    -658.393
  C      290.268     688.729    -660.274
  O      291.552     688.583    -660.844
  C      289.591     687.414    -659.907
  O      290.506     686.465    -659.358
  C      288.570     687.839    -658.837
  N      283.689     686.687    -657.796
  C      284.810     686.555    -656.984
  N      284.622     686.009    -655.769
  N      286.008     686.929    -657.355
  C      286.076     687.368    -658.633
  C      285.043     687.534    -659.535
  C      283.705     687.190    -659.097
  O      282.682     687.289    -659.753
  N      285.485     687.994    -660.735
  C      286.797     688.099    -660.594
  N      287.201     687.739    -659.311
  O      289.517     694.471    -657.527
  O      289.917     693.936    -659.953
  H      291.090     686.170    -660.066
  H      290.668     694.502    -659.683
  H      282.793     686.417    -657.445
  H      287.489     688.432    -661.341
  H      288.637     687.201    -657.954
  H      289.143     686.952    -660.791
  H      283.751     685.611    -655.471
  H      289.641     689.159    -661.075
  H      285.463     685.728    -655.274
  H      290.871     689.511    -658.304
  H      290.826     691.435    -660.008
  H      289.089     691.204    -660.157
  P      292.122     689.379    -662.115
  C      293.628     690.819    -660.622
  O      292.622     690.816    -661.616
  O      290.822     689.741    -662.970
  O      293.118     688.624    -662.936
  H      291.078     689.986    -663.879
  H      293.666     691.809    -660.144
  H      294.599     690.615    -661.094
  H      293.430     690.058    -659.841
  H      285.648     693.389    -658.641
  H      286.599     694.491    -657.675
  H      286.627     692.779    -657.328

 3  4  5  6  7  8  9  10  11  12  23  26  30  31 0
 6-311+G(2d,p)
 ****
 33  35  36  37  38 0
 6-311+G(2d,p)
 ****
 1  2  13  14  15  16  17  18  19  20  21  22  24  25 0
 3-21G
 ****
 27  28  29  32  34  39  40  41  42  43  44  45  46  47  48  49 0
 3-21G
 ****


