%nproc=1
%NoSave
%Mem=1900MB
#P OB98/GEN NMR

erre ene a

0 1
  C      -66.950    -168.757    -535.341
  O      -66.436    -168.102    -536.481
  H      -68.042    -168.780    -535.423
  H      -66.689    -168.216    -534.430
  H      -66.577    -169.784    -535.289
  P      -64.864    -167.749    -536.532
  C      -63.565    -165.537    -536.561
  O      -64.784    -166.170    -536.198
  C      -63.185    -164.433    -535.563
  O      -64.183    -163.376    -535.609
  C      -63.095    -164.918    -534.110
  O      -61.893    -164.416    -533.522
  C      -64.317    -164.298    -533.444
  O      -64.145    -164.154    -532.036
  C      -64.462    -162.998    -534.243
  N      -65.782    -162.394    -534.110
  C      -65.975    -161.547    -533.014
  O      -65.070    -161.379    -532.196
  N      -67.197    -160.944    -532.845
  C      -68.168    -161.209    -533.664
  N      -69.355    -160.593    -533.438
  C      -68.020    -162.136    -534.822
  C      -66.809    -162.678    -534.983
  O      -64.176    -168.160    -537.786
  O      -64.259    -168.423    -535.213
  H      -63.370    -163.551    -531.880
  H      -63.282    -168.535    -535.322
  H      -68.858    -162.325    -535.473
  H      -66.611    -163.356    -535.799
  H      -63.704    -162.263    -533.934
  H      -65.191    -164.947    -533.616
  H      -63.095    -166.003    -534.018
  H      -62.245    -163.973    -535.892
  H      -69.414    -159.970    -532.638
  H      -63.674    -165.117    -537.572
  H      -70.179    -160.725    -534.013
  H      -62.773    -166.293    -536.570
  P      -60.672    -165.455    -533.396
  C      -60.034    -167.327    -531.716
  O      -61.085    -166.564    -532.305
  O      -59.537    -164.599    -532.654
  O      -60.209    -165.989    -534.710
  H      -58.883    -164.282    -533.309
  H      -60.447    -168.021    -531.014
  H      -59.356    -166.671    -531.211
  H      -59.510    -167.862    -532.480

 6  7  8  9  10  11  12  13  14  15  16  26  30  31  32  33  35 0
 6-311+G(2d,p)
 ****
 37  38 0
 6-311+G(2d,p)
 ****
 1  2  3  4  5  17  18  19  20  21  22  23  24  25 0
 3-21G
 ****
 27  28  29  34  36  39  40  41  42  43  44  45  46 0
 3-21G
 ****


