%nproc=1
%NoSave
%Mem=1900MB
#P OB98/GEN NMR

erre ene a

0 1
  C     -193.903     137.659     144.424
  O     -193.266     138.224     143.294
  P     -194.115     138.872     142.103
  C     -194.476     136.621     140.932
  O     -195.103     137.747     141.529
  C     -194.108     136.894     139.474
  O     -193.503     135.706     138.899
  C     -195.298     137.289     138.589
  O     -194.836     138.289     137.674
  C     -195.623     136.001     137.854
  O     -196.335     136.231     136.648
  C     -194.217     135.413     137.682
  N     -194.244     133.981     137.413
  C     -193.812     133.569     136.150
  O     -193.559     134.403     135.278
  N     -193.697     132.223     135.905
  C     -194.154     131.373     136.775
  N     -193.957     130.049     136.525
  C     -194.844     131.786     138.014
  C     -194.815     133.087     138.289
  O     -193.310     139.578     141.063
  O     -195.114     139.886     142.838
  H     -195.028     140.769     142.430
  H     -196.538     135.366     136.231
  H     -195.318     131.049     138.646
  H     -195.270     133.487     139.190
  H     -193.685     135.914     136.865
  H     -196.233     135.355     138.495
  H     -196.140     137.687     139.163
  H     -193.349     137.685     139.456
  H     -193.444     129.807     135.687
  H     -195.176     135.783     140.971
  H     -193.984     129.349     137.266
  H     -193.586     136.341     141.508
  P     -195.740     139.596     137.452
  C     -196.517     138.901     135.075
  O     -196.890     139.228     136.397
  O     -194.762     140.520     136.570
  O     -196.160     140.335     138.680
  H     -195.008     141.455     136.697
  H     -197.422     138.745     134.482
  H     -195.928     137.981     135.061
  H     -195.941     139.715     134.625
  H     -193.163     137.283     145.099
  H     -194.540     136.859     144.111
  H     -194.487     138.408     144.916

 3  4  5  6  7  8  9  10  11  12  13  24  27  28  29  30  32 0
 6-311+G(2d,p)
 ****
 34  35 0
 6-311+G(2d,p)
 ****
 1  2  14  15  16  17  18  19  20  21  22  23  25  26 0
 3-21G
 ****
 31  33  36  37  38  39  40  41  42  43  44  45  46 0
 3-21G
 ****


