%nproc=1
%NoSave
%Mem=1900MB
#P OB98/GEN NMR

erre ene a

0 1
  C       25.680     111.627     -75.484
  O       26.066     112.411     -74.375
  H       26.556     111.345     -76.070
  H       25.192     110.718     -75.121
  H       24.974     112.179     -76.110
  P       26.839     113.780     -74.692
  C       29.134     112.758     -74.052
  O       28.179     113.779     -73.802
  C       30.453     113.099     -73.363
  O       31.060     114.213     -74.064
  C       30.320     113.484     -71.879
  O       31.115     112.613     -71.070
  C       30.905     114.885     -71.798
  O       31.701     115.095     -70.633
  C       31.733     114.997     -73.072
  N       33.299     119.631     -71.648
  C       33.634     118.400     -71.205
  N       33.263     117.201     -71.697
  C       32.480     117.354     -72.779
  C       32.073     118.543     -73.361
  C       32.501     119.725     -72.737
  N       32.115     120.980     -73.155
  N       31.264     118.299     -74.456
  C       31.150     116.988     -74.506
  N       31.852     116.376     -73.502
  O       25.923     114.890     -73.989
  O       27.044     114.070     -76.141
  H       31.090     115.086     -69.871
  H       25.767     115.627     -74.609
  H       34.282     118.374     -70.333
  H       30.543     116.435     -75.212
  H       32.743     114.589     -72.946
  H       30.085     115.613     -71.791
  H       29.282     113.470     -71.530
  H       31.130     112.242     -73.473
  H       29.308     112.674     -75.130
  H       32.373     121.765     -72.580
  H       31.434     121.052     -73.896
  H       28.740     111.804     -73.687
  P       30.413     111.255     -70.568
  C       30.093     112.316     -68.213
  O       30.555     111.206     -68.970
  O       31.431     110.123     -71.063
  O       29.038     111.048     -71.107
  H       30.953     109.283     -71.203
  H       30.257     112.131     -67.172
  H       29.047     112.458     -68.390
  H       30.627     113.195     -68.507

 6  7  8  9  10  11  12  13  14  15  25  28  32  33  34  35 0
 6-311+G(2d,p)
 ****
 36  39  40 0
 6-311+G(2d,p)
 ****
 1  2  3  4  5  16  17  18  19  20  21  22  23  24 0
 3-21G
 ****
 26  27  29  30  31  37  38  41  42  43  44  45  46  47  48 0
 3-21G
 ****


