%nproc=1
%NoSave
%Mem=1900MB
#P OB98/GEN NMR

erre ene a

0 1
  C      -48.918      15.761      93.893
  O      -48.560      17.004      93.318
  H      -49.830      15.895      94.481
  H      -48.130      15.396      94.557
  H      -49.110      15.023      93.109
  P      -47.166      17.102      92.534
  C      -46.666      19.269      93.855
  O      -46.207      17.978      93.469
  C      -46.207      19.585      95.275
  O      -46.728      18.607      96.197
  C      -44.695      19.547      95.439
  O      -44.098      20.705      94.893
  C      -44.575      19.395      96.943
  O      -44.746      20.652      97.609
  C      -45.751      18.440      97.252
  N      -45.334      17.047      97.364
  C      -44.592      16.719      98.504
  O      -44.330      17.576      99.345
  N      -44.149      15.427      98.644
  C      -44.433      14.541      97.743
  N      -43.964      13.281      97.943
  C      -45.224      14.843      96.534
  C      -45.634      16.104      96.408
  O      -47.224      17.559      91.108
  O      -46.555      15.628      92.667
  H      -45.613      20.994      97.314
  H      -46.847      15.069      91.923
  H      -45.442      14.072      95.812
  H      -46.223      16.410      95.550
  H      -46.244      18.727      98.188
  H      -43.602      18.999      97.228
  H      -44.288      18.644      94.973
  H      -46.611      20.564      95.559
  H      -43.416      13.121      98.782
  H      -47.759      19.251      93.806
  H      -44.195      12.494      97.357
  H      -46.300      20.033      93.161
  P      -43.101      20.596      93.641
  C      -41.221      20.927      95.376
  O      -41.684      20.165      94.263
  O      -43.072      21.786      92.744
  O      -43.588      19.258      92.907
  H      -44.437      19.402      92.422
  H      -40.274      20.547      95.699
  H      -41.927      20.854      96.177
  H      -41.115      21.952      95.087

 6  7  8  9  10  11  12  13  14  15  16  26  30  31  32  33  35 0
 6-311+G(2d,p)
 ****
 37  38 0
 6-311+G(2d,p)
 ****
 1  2  3  4  5  17  18  19  20  21  22  23  24  25 0
 3-21G
 ****
 27  28  29  34  36  39  40  41  42  43  44  45  46 0
 3-21G
 ****


