%nproc=1
%NoSave
%Mem=1900MB
#P OB98/GEN NMR

erre ene a

0 1
  C      593.912     325.515     453.326
  O      594.878     325.719     452.312
  H      592.980     326.001     453.028
  H      594.253     325.955     454.269
  H      593.728     324.447     453.463
  P      596.354     325.163     452.615
  C      597.185     327.518     453.371
  O      597.286     326.460     452.428
  C      598.125     328.651     452.971
  O      599.500     328.284     453.223
  C      598.065     329.015     451.492
  O      596.944     329.822     451.167
  C      599.373     329.778     451.350
  O      599.228     331.094     451.916
  C      600.321     328.904     452.198
  N      601.021     327.887     451.413
  C      602.095     328.326     450.631
  O      602.410     329.516     450.604
  N      602.769     327.407     449.858
  C      602.419     326.164     449.875
  N      603.111     325.302     449.084
  C      601.303     325.652     450.703
  C      600.660     326.560     451.434
  O      596.705     324.294     451.314
  O      596.530     324.438     453.907
  H      600.061     331.570     451.745
  H      597.650     324.011     451.350
  H      601.036     324.608     450.673
  H      599.828     326.256     452.062
  H      601.069     329.525     452.711
  H      599.678     329.911     450.309
  H      598.108     328.130     450.854
  H      597.897     329.518     453.605
  H      603.829     325.687     448.485
  H      597.458     327.131     454.356
  H      602.794     324.360     448.895
  H      596.161     327.894     453.407
  P      595.655     329.089     450.554
  C      596.240     330.039     448.211
  O      595.253     329.883     449.220
  O      594.495     329.489     451.580
  O      595.783     327.603     450.403
  H      593.884     328.743     451.729
  H      595.827     330.585     447.389
  H      596.561     329.076     447.874
  H      597.077     330.574     448.610

 6  7  8  9  10  11  12  13  14  15  16  26  30  31  32  33  35 0
 6-311+G(2d,p)
 ****
 37  38 0
 6-311+G(2d,p)
 ****
 1  2  3  4  5  17  18  19  20  21  22  23  24  25 0
 3-21G
 ****
 27  28  29  34  36  39  40  41  42  43  44  45  46 0
 3-21G
 ****


