%nproc=1
%NoSave
%Mem=1900MB
#P OB98/GEN NMR

erre ene a

0 1
  C      205.234    -156.498     -62.988
  O      204.803    -156.188     -61.678
  H      204.481    -156.149     -63.697
  H      205.339    -157.582     -63.091
  H      206.185    -156.008     -63.211
  P      205.894    -156.311     -60.507
  C      204.615    -158.384     -59.609
  O      205.190    -157.121     -59.312
  C      203.094    -158.284     -59.621
  O      202.599    -157.981     -58.299
  C      202.542    -157.202     -60.543
  O      202.450    -157.657     -61.886
  C      201.162    -156.995     -59.942
  O      200.290    -158.073     -60.346
  C      201.453    -157.096     -58.437
  N      199.725    -153.474     -55.335
  C      199.092    -154.604     -55.816
  N      197.815    -154.792     -55.420
  N      199.657    -155.471     -56.617
  C      200.928    -155.142     -56.948
  C      201.659    -154.048     -56.542
  C      201.029    -153.109     -55.645
  O      201.549    -152.097     -55.181
  N      202.917    -154.052     -57.087
  C      202.938    -155.134     -57.840
  N      201.755    -155.828     -57.793
  O      205.984    -154.811     -59.950
  O      207.231    -156.812     -60.935
  H      200.701    -158.902     -60.042
  H      206.794    -154.393     -60.300
  H      199.241    -152.835     -54.729
  H      203.782    -155.462     -58.429
  H      200.621    -157.544     -57.883
  H      200.692    -156.067     -60.272
  H      197.314    -154.153     -54.824
  H      203.119    -156.272     -60.469
  H      197.333    -155.616     -55.758
  H      202.696    -159.268     -59.900
  H      204.928    -159.106     -58.848
  H      204.976    -158.717     -60.589
  P      201.797    -156.677     -62.976
  C      199.539    -157.897     -63.350
  O      200.817    -157.572     -63.882
  O      203.027    -156.369     -63.951
  O      201.205    -155.423     -62.431
  H      203.295    -155.432     -63.861
  H      198.999    -158.492     -64.057
  H      198.995    -156.997     -63.153
  H      199.661    -158.447     -62.440

 6  7  8  9  10  11  12  13  14  15  26  29  33  34 0
 6-311+G(2d,p)
 ****
 36  38  39  40  41 0
 6-311+G(2d,p)
 ****
 1  2  3  4  5  16  17  18  19  20  21  22  23  24  25 0
 3-21G
 ****
 27  28  30  31  32  35  37  42  43  44  45  46  47 0
 3-21G
 ****
 48  49 0
 3-21G
 ****


