%nproc=1
%NoSave
%Mem=1900MB
#P OB98/GEN NMR

erre ene a

0 1
  C      300.425    -459.276     575.077
  O      300.295    -458.404     573.969
  P      299.309    -458.849     572.781
  C      300.805    -460.634     571.598
  O      300.228    -459.335     571.564
  C      301.124    -461.095     570.177
  O      299.914    -461.431     569.467
  C      301.808    -460.027     569.330
  O      303.190    -459.921     569.636
  C      301.540    -460.533     567.922
  O      302.501    -461.529     567.538
  C      300.136    -461.153     568.069
  N      299.083    -460.310     567.514
  C      299.036    -460.229     566.125
  O      299.839    -460.817     565.394
  N      298.059    -459.430     565.603
  C      297.180    -458.671     566.314
  O      296.360    -457.923     565.788
  C      297.295    -458.765     567.782
  C      298.228    -459.563     568.303
  O      298.685    -457.473     572.266
  O      298.254    -459.825     573.185
  H      303.344    -461.056     567.381
  H      297.756    -457.609     571.993
  H      297.994    -459.381     564.597
  H      296.615    -458.172     568.377
  H      298.340    -459.640     569.381
  H      300.098    -462.126     567.562
  H      301.595    -459.728     567.177
  H      301.308    -459.059     569.467
  H      301.751    -461.996     570.235
  H      300.100    -461.328     572.062
  H      301.712    -460.606     572.210
  P      303.746    -458.459     569.999
  C      303.962    -457.594     567.545
  O      304.611    -458.021     568.719
  O      304.831    -458.823     571.130
  O      302.678    -457.517     570.436
  H      305.245    -459.692     570.976
  H      303.047    -457.035     567.767
  H      303.718    -458.463     566.933
  H      304.638    -456.945     566.984
  H      301.108    -458.854     575.784
  H      300.795    -460.223     574.744
  H      299.470    -459.410     575.540

 3  4  5  6  7  8  9  10  11  12  13  23  28  29  30  31  32 0
 6-311+G(2d,p)
 ****
 33  34 0
 6-311+G(2d,p)
 ****
 1  2  14  15  16  17  18  19  20  21  22  24  25  26 0
 3-21G
 ****
 27  35  36  37  38  39  40  41  42  43  44  45 0
 3-21G
 ****


