%nproc=1
%NoSave
%Mem=1900MB
#P OB98/GEN NMR

erre ene a

0 1
  C       10.395    -392.966    -584.542
  O        9.160    -393.505    -584.947
  P        7.809    -392.637    -584.872
  C        7.021    -394.176    -582.951
  O        6.704    -393.608    -584.222
  C        5.840    -395.004    -582.425
  O        4.713    -394.162    -582.138
  C        5.345    -396.065    -583.405
  O        6.219    -397.182    -583.426
  C        3.955    -396.352    -582.841
  O        4.017    -397.282    -581.747
  C        3.519    -394.943    -582.338
  N        2.587    -394.306    -583.256
  C        1.243    -394.715    -583.171
  O        0.926    -395.605    -582.370
  N        0.314    -394.150    -584.004
  C        0.707    -393.266    -584.877
  N       -0.254    -392.741    -585.692
  C        2.104    -392.817    -585.030
  C        2.984    -393.379    -584.193
  O        7.404    -391.965    -586.143
  O        8.112    -391.606    -583.674
  H        4.162    -398.169    -582.160
  H        8.748    -390.896    -583.968
  H        2.377    -392.090    -585.768
  H        4.051    -393.104    -584.221
  H        3.033    -395.026    -581.351
  H        3.290    -396.768    -583.606
  H        5.256    -395.623    -584.404
  H        6.164    -395.484    -581.483
  H       -1.201    -393.101    -585.583
  H        7.206    -393.355    -582.258
  H       -0.062    -392.071    -586.434
  H        7.926    -394.775    -583.033
  P        6.944    -397.599    -584.795
  C        7.437    -399.844    -583.642
  O        7.947    -398.796    -584.464
  O        7.535    -396.470    -585.565
  O        5.782    -398.323    -585.635
  H        5.820    -398.004    -586.544
  H        8.079    -400.725    -583.760
  H        6.415    -400.095    -583.926
  H        7.467    -399.526    -582.586
  H       11.163    -393.700    -584.670
  H       10.340    -392.683    -583.512
  H       10.621    -392.106    -585.137

 3  4  5  6  7  8  9  10  11  12  13  23  27  28  29  30  32 0
 6-311+G(2d,p)
 ****
 34  35 0
 6-311+G(2d,p)
 ****
 1  2  14  15  16  17  18  19  20  21  22  24  25  26 0
 3-21G
 ****
 31  33  36  37  38  39  40  41  42  43  44  45  46 0
 3-21G
 ****


