%nproc=1
%NoSave
%Mem=1900MB
#P OB98/GEN NMR

erre ene a

0 1
  C     -899.017     -45.036    2000.987
  O     -898.157     -45.195    1999.857
  P     -897.857     -44.026    1998.805
  C     -895.317     -44.193    1998.218
  O     -896.317     -43.541    1999.003
  C     -894.707     -45.373    1998.968
  O     -895.737     -46.372    1999.229
  C     -893.627     -46.135    1998.212
  O     -892.407     -45.420    1998.161
  C     -893.557     -47.433    1999.023
  O     -892.697     -47.283    2000.175
  C     -895.017     -47.623    1999.467
  N     -895.677     -48.735    1998.805
  C     -895.707     -49.938    1999.499
  O     -895.117     -50.082    2000.594
  N     -896.387     -51.002    1998.950
  C     -896.897     -50.884    1997.769
  N     -897.587     -51.972    1997.261
  C     -896.767     -49.664    1996.927
  C     -896.177     -48.655    1997.517
  O     -898.827     -42.897    1998.854
  O     -897.847     -44.729    1997.362
  H     -898.077     -44.069    1996.672
  H     -892.607     -48.181    2000.567
  H     -897.177     -49.632    1995.937
  H     -896.027     -47.697    1996.985
  H     -895.057     -47.787    2000.552
  H     -893.147     -48.260    1998.426
  H     -893.977     -46.350    1997.191
  H     -894.327     -45.011    1999.940
  H     -897.657     -52.784    1997.868
  H     -894.537     -43.462    1997.996
  H     -898.027     -51.964    1996.358
  H     -895.767     -44.520    1997.264
  P     -892.067     -44.644    1996.789
  C     -891.687     -42.194    1997.546
  O     -892.567     -43.107    1996.944
  O     -893.127     -45.255    1995.731
  O     -890.667     -44.791    1996.304
  H     -892.707     -45.395    1994.863
  H     -891.907     -41.201    1997.156
  H     -890.627     -42.422    1997.325
  H     -891.817     -42.186    1998.616
  H     -899.057     -45.953    2001.537
  H     -900.000     -44.777    2000.653
  H     -898.638     -44.259    2001.617

 3  4  5  6  7  8  9  10  11  12  13  24  27  28  29  30  32 0
 6-311+G(2d,p)
 ****
 34  35 0
 6-311+G(2d,p)
 ****
 1  2  14  15  16  17  18  19  20  21  22  23  25  26 0
 3-21G
 ****
 31  33  36  37  38  39  40  41  42  43  44  45  46 0
 3-21G
 ****


