%nproc=1
%NoSave
%Mem=1900MB
#P OB98/GEN NMR

erre ene a

0 1
  C     -479.700    -282.363     -34.623
  O     -478.952    -282.014     -35.798
  P     -479.463    -280.718     -36.605
  C     -480.841    -280.296     -38.774
  O     -480.078    -281.221     -38.009
  C     -481.179    -280.841     -40.163
  O     -479.950    -281.038     -40.905
  C     -481.927    -282.176     -40.171
  O     -482.877    -282.174     -41.245
  C     -480.846    -283.180     -40.517
  O     -481.380    -284.382     -41.078
  C     -479.996    -282.353     -41.483
  N     -476.880    -284.724     -44.700
  C     -478.158    -284.225     -44.908
  N     -478.681    -284.405     -46.138
  N     -478.853    -283.606     -43.987
  C     -478.185    -283.468     -42.813
  C     -476.926    -283.901     -42.483
  C     -476.181    -284.624     -43.500
  O     -475.071    -285.135     -43.360
  N     -476.595    -283.572     -41.191
  C     -477.664    -282.945     -40.729
  N     -478.660    -282.862     -41.679
  O     -478.099    -279.983     -37.015
  O     -480.351    -279.822     -35.802
  H     -482.022    -284.116     -41.765
  H     -478.105    -279.076     -36.686
  H     -476.397    -285.209     -45.430
  H     -477.783    -282.559     -39.728
  H     -480.481    -282.274     -42.465
  H     -480.284    -283.449     -39.612
  H     -478.171    -284.822     -46.907
  H     -482.438    -282.420     -39.225
  H     -479.600    -284.016     -46.326
  H     -481.761    -280.078     -40.699
  H     -480.281    -279.360     -38.871
  H     -481.763    -280.067     -38.222
  P     -484.417    -282.409     -40.848
  C     -485.868    -284.528     -40.436
  O     -484.574    -283.989     -40.639
  O     -485.198    -282.128     -42.213
  O     -484.895    -281.542     -39.723
  H     -486.107    -281.834     -42.032
  H     -486.656    -283.806     -40.647
  H     -485.953    -284.864     -39.396
  H     -485.988    -285.398     -41.088
  H     -479.271    -283.234     -34.173
  H     -480.715    -282.564     -34.893
  H     -479.671    -281.551     -33.927

 3  4  5  6  7  8  9  10  11  12  23  26  30  31  33  0
 6-311+G(2d,p)
 ****
 35  36  37  38 0
 6-311+G(2d,p)
 ****
 1  2  13  14  15  16  17  18  19  20  21  22  24  25  27  28  29 0
 3-21G
 ****
 32  34  39  40  41  42  43  44  45  46  47  48  49 0
 3-21G
 ****


