%nproc=1
%NoSave
%Mem=1900MB
#P OB98/GEN NMR

erre ene a

0 1
  C      147.569      77.064     158.793
  O      146.198      77.259     159.081
  H      147.691      76.994     157.709
  H      147.927      76.135     159.246
  H      148.159      77.909     159.156
  P      145.746      77.352     160.615
  C      145.071      74.877     160.300
  O      145.678      75.841     161.153
  C      145.351      73.466     160.811
  O      146.747      73.145     160.661
  C      145.016      73.256     162.288
  O      143.630      73.017     162.458
  C      145.860      72.029     162.590
  O      145.216      70.854     162.057
  C      147.146      72.325     161.794
  N      151.516      71.876     164.342
  C      150.683      70.897     163.831
  N      151.051      69.619     164.059
  N      149.582      71.151     163.169
  C      149.304      72.473     163.080
  C      150.040      73.532     163.558
  C      151.289      73.241     164.231
  O      152.071      74.079     164.677
  N      149.395      74.725     163.361
  C      148.291      74.392     162.715
  N      148.184      73.031     162.526
  O      144.506      78.150     160.889
  O      147.025      77.951     161.369
  H      144.704      71.137     161.276
  H      146.978      78.923     161.423
  H      152.346      71.621     164.850
  H      147.544      75.090     162.356
  H      147.604      71.411     161.394
  H      146.000      71.862     163.659
  H      151.799      69.361     164.684
  H      145.372      74.090     162.903
  H      150.424      68.889     163.742
  H      144.789      72.764     160.179
  H      145.493      75.012     159.298
  H      143.990      75.041     160.248
  P      142.826      73.604     163.721
  C      143.300      71.363     164.927
  O      143.363      72.780     164.988
  O      141.345      73.618     163.569
  O      143.472      75.045     163.967
  H      143.065      75.753     163.406
  H      143.689      70.949     165.834
  H      143.881      71.015     164.099
  H      142.282      71.056     164.803

 6  7  8  9  10  11  12  13  14  15  26  29  33  34 0
 6-311+G(2d,p)
 ****
 36  38  39  40  41 0
 6-311+G(2d,p)
 ****
 1  2  3  4  5  16  17  18  19  20  21  22  23  24  25 0
 3-21G
 ****
 27  28  30  31  32  35  37  42  43  44  45  46  47 0
 3-21G
 ****
 48  49 0
 3-21G
 ****


