%nproc=1
%NoSave
%Mem=1900MB
#P OB98/GEN NMR

erre ene a

0 1
  C      331.312     150.684     158.946
  O      330.604     151.210     160.080
  P      330.575     150.315     161.409
  C      329.213     150.511     163.627
  O      329.221     150.634     162.210
  C      327.892     151.029     164.201
  O      327.895     152.470     164.276
  C      326.686     150.676     163.340
  O      326.307     149.331     163.545
  C      325.652     151.694     163.821
  O      324.879     151.181     164.922
  C      326.518     152.898     164.260
  N      326.331     154.063     163.411
  C      325.034     154.580     163.362
  O      324.121     154.048     163.995
  N      324.798     155.686     162.576
  C      325.772     156.200     161.877
  N      325.476     157.289     161.116
  C      327.152     155.662     161.888
  C      327.354     154.603     162.663
  O      331.709     150.976     162.323
  O      330.833     148.860     161.163
  H      325.524     150.952     165.612
  H      332.136     150.296     162.873
  H      327.922     156.119     161.280
  H      328.335     154.143     162.722
  H      326.266     153.187     165.289
  H      324.931     151.937     163.023
  H      326.912     150.853     162.280
  H      327.762     150.624     165.213
  H      324.524     157.630     161.133
  H      330.053     151.063     164.059
  H      326.156     157.768     160.532
  H      329.367     149.449     163.890
  P      326.213     148.374     162.270
  C      326.587     145.844     162.001
  O      326.145     146.882     162.861
  O      327.709     148.434     161.687
  O      325.194     148.719     161.224
  H      327.757     147.959     160.835
  H      326.686     144.918     162.593
  H      327.553     146.096     161.575
  H      325.854     145.679     161.206
  H      331.251     151.378     158.134
  H      330.874     149.753     158.652
  H      332.338     150.529     159.207

 3  4  5  6  7  8  9  10  11  12  13  21  23  27  28  29  30  32 0
 6-311+G(2d,p)
 ****
 34  35 0
 6-311+G(2d,p)
 ****
 1  2  14  15  16  17  18  19  20  22  24  25  26 0
 3-21G
 ****
 31  33  36  37  38  39  40  41  42  43  44  45  46 0
 3-21G
 ****


