%nproc=1
%NoSave
%Mem=1900MB
#P OB98/GEN NMR

erre ene a

0 1
  C     -780.339     468.073    -273.551
  O     -781.016     466.851    -273.340
  H     -779.268     467.906    -273.399
  H     -780.677     468.826    -272.835
  H     -780.495     468.431    -274.572
  P     -782.598     466.796    -273.596
  C     -782.577     464.482    -274.723
  O     -782.821     465.869    -274.892
  C     -781.290     464.075    -275.445
  O     -780.173     464.809    -274.870
  C     -780.971     462.584    -275.333
  O     -780.414     462.139    -276.574
  C     -779.912     462.525    -274.250
  O     -779.065     461.383    -274.381
  C     -779.186     463.850    -274.454
  N     -775.134     463.181    -271.503
  C     -775.457     462.616    -272.725
  N     -774.580     461.719    -273.229
  N     -776.547     462.903    -273.393
  C     -777.325     463.827    -272.781
  C     -777.122     464.450    -271.573
  C     -775.921     464.113    -270.836
  O     -775.593     464.574    -269.747
  N     -778.164     465.300    -271.278
  C     -778.986     465.189    -272.302
  N     -778.525     464.298    -273.234
  O     -783.285     468.120    -273.657
  O     -783.155     465.892    -272.402
  H     -778.637     461.443    -275.259
  H     -783.535     466.447    -271.697
  H     -774.298     462.918    -271.026
  H     -779.918     465.716    -272.409
  H     -778.412     463.791    -275.227
  H     -780.393     462.480    -273.271
  H     -773.720     461.462    -272.778
  H     -781.850     461.974    -275.089
  H     -774.778     461.311    -274.136
  H     -781.369     464.384    -276.496
  H     -783.423     463.930    -275.141
  H     -782.496     464.256    -273.655
  P     -781.358     462.080    -277.871
  C     -780.036     463.175    -279.797
  O     -781.029     463.357    -278.793
  O     -782.807     461.841    -277.608
  O     -780.715     460.876    -278.719
  H     -781.424     460.448    -279.235
  H     -779.907     464.088    -280.340
  H     -780.345     462.401    -280.468
  H     -779.110     462.900    -279.337

 6  7  8  9  10  11  12  13  14  15  26  29  33  34 0
 6-311+G(2d,p)
 ****
 36  38  39  40  41 0
 6-311+G(2d,p)
 ****
 1  2  3  4  5  16  17  18  19  20  21  22  23  24  25 0
 3-21G
 ****
 27  28  30  31  32  35  37  42  43  44  45  46  47 0
 3-21G
 ****
 48  49 0
 3-21G
 ****


