%nproc=1
%NoSave
%Mem=1900MB
#P OB98/GEN NMR

erre ene a

0 1
  C     -248.160    -894.570    -244.305
  O     -247.811    -894.610    -245.693
  P     -246.714    -895.620    -246.268
  C     -247.425    -896.550    -248.556
  O     -247.431    -896.750    -247.142
  C     -248.767    -896.950    -249.202
  O     -249.844    -896.150    -248.682
  C     -248.801    -896.800    -250.715
  O     -248.146    -897.870    -251.354
  C     -250.320    -896.740    -250.959
  O     -250.877    -898.070    -250.985
  C     -250.808    -895.960    -249.736
  N     -252.918    -892.530    -252.886
  C     -252.945    -893.880    -252.875
  N     -252.344    -894.730    -252.007
  C     -251.696    -894.040    -251.059
  C     -251.579    -892.660    -250.926
  C     -252.227    -891.890    -251.920
  N     -252.193    -890.500    -251.933
  N     -250.801    -892.330    -249.855
  C     -250.468    -893.470    -249.301
  N     -250.994    -894.540    -249.995
  O     -245.770    -896.150    -245.242
  O     -245.899    -894.760    -247.359
  H     -251.850    -897.980    -251.046
  H     -244.986    -895.090    -247.436
  H     -253.514    -894.340    -253.672
  H     -249.876    -893.590    -248.408
  H     -251.759    -896.350    -249.368
  H     -250.568    -896.280    -251.919
  H     -248.366    -895.860    -251.012
  H     -248.953    -898.000    -248.910
  H     -246.616    -897.150    -248.992
  H     -252.649    -890.030    -252.685
  H     -251.638    -890.020    -251.231
  H     -247.219    -895.480    -248.753
  P     -246.672    -897.660    -251.969
  C     -245.449    -899.410    -250.527
  O     -245.614    -898.040    -250.804
  O     -246.447    -896.350    -252.641
  O     -246.513    -898.890    -252.967
  H     -245.903    -898.630    -253.711
  H     -246.271    -899.750    -249.883
  H     -244.512    -899.550    -249.992
  H     -245.434    -900.000    -251.444
  H     -248.911    -893.824    -244.147
  H     -247.293    -894.331    -243.726
  H     -248.538    -895.525    -244.005

 3  4  5  6  7  8  9  10  11  12  22  25  29  30  31  32 0
 6-311+G(2d,p)
 ****
 33  36  37 0
 6-311+G(2d,p)
 ****
 1  2  13  14  15  16  17  18  19  20  21  23  24  26 0
 3-21G
 ****
 27  28  34  35  38  39  40  41  42  43  44  45  46  47  48 0
 3-21G
 ****


