%nproc=1
%NoSave
%Mem=1900MB
#P OB98/GEN NMR

erre ene a

0 1
  C     -183.381     448.013    -218.562
  O     -182.540     448.467    -219.607
  P     -181.768     449.862    -219.391
  C     -183.810     451.020    -220.520
  O     -182.886     451.011    -219.438
  C     -185.236     451.194    -220.003
  O     -185.441     450.407    -218.809
  C     -185.588     452.623    -219.607
  O     -185.930     453.425    -220.722
  C     -186.798     452.393    -218.719
  O     -187.971     452.182    -219.530
  C     -186.422     451.094    -217.990
  N     -187.478     452.591    -213.267
  C     -188.334     452.275    -214.310
  N     -189.654     452.440    -214.074
  N     -187.929     451.839    -215.474
  C     -186.582     451.726    -215.568
  C     -185.636     452.006    -214.608
  C     -186.094     452.507    -213.323
  O     -185.382     452.847    -212.381
  N     -184.366     451.766    -215.068
  C     -184.541     451.339    -216.302
  N     -185.861     451.340    -216.672
  O     -180.981     450.066    -220.775
  O     -180.855     449.889    -218.210
  H     -188.207     453.052    -219.912
  H     -180.271     450.722    -220.658
  H     -187.837     452.935    -212.395
  H     -183.746     451.037    -216.972
  H     -187.280     450.423    -217.876
  H     -187.011     453.236    -218.059
  H     -190.022     452.836    -213.227
  H     -184.782     453.080    -219.014
  H     -190.299     452.279    -214.841
  H     -185.928     450.823    -220.776
  H     -183.729     450.079    -221.067
  H     -183.552     451.836    -221.206
  P     -185.046     454.741    -220.976
  C     -186.832     456.211    -219.795
  O     -185.485     455.773    -219.834
  O     -185.677     455.352    -222.315
  O     -183.577     454.482    -221.103
  H     -185.011     455.875    -222.796
  H     -187.020     456.689    -218.824
  H     -187.525     455.379    -219.916
  H     -187.005     456.953    -220.589
  H     -183.826     447.081    -218.841
  H     -184.150     448.735    -218.384
  H     -182.803     447.880    -217.671

 3  4  5  6  7  8  9  10  11  12  23  26  30  31 0
 6-311+G(2d,p)
 ****
 33  35  36  37  38 0
 6-311+G(2d,p)
 ****
 1  2  13  14  15  16  17  18  19  20  21  22  24  25 0
 3-21G
 ****
 27  28  29  32  34  39  40  41  42  43  44  45  46  47  48  49 0
 3-21G
 ****


