%nproc=1
%NoSave
%Mem=1900MB
#P OB98/GEN NMR

erre ene a

0 1
  C      -50.117     394.866    -565.306
  O      -51.143     394.213    -564.590
  H      -49.323     395.144    -564.608
  H      -50.507     395.772    -565.773
  H      -49.702     394.201    -566.070
  P      -52.414     393.722    -565.433
  C      -52.256     391.454    -564.185
  O      -52.363     392.115    -565.440
  C      -52.276     389.932    -564.376
  O      -53.595     389.536    -564.865
  C      -51.237     389.421    -565.385
  O      -50.718     388.172    -564.914
  C      -52.057     389.177    -566.634
  O      -51.446     388.236    -567.506
  C      -53.376     388.706    -566.021
  N      -55.691     386.331    -569.806
  C      -54.621     385.936    -569.020
  N      -54.070     384.731    -569.287
  N      -54.128     386.671    -568.063
  C      -54.781     387.843    -567.892
  C      -55.840     388.350    -568.601
  C      -56.370     387.534    -569.676
  O      -57.302     387.831    -570.419
  N      -56.208     389.591    -568.137
  C      -55.360     389.838    -567.150
  N      -54.475     388.806    -566.958
  O      -52.034     394.104    -566.941
  O      -53.733     394.305    -565.018
  H      -50.674     388.671    -567.927
  H      -52.838     394.305    -567.464
  H      -56.029     385.729    -570.538
  H      -55.340     390.739    -566.546
  H      -53.332     387.662    -565.689
  H      -52.200     390.117    -567.188
  H      -54.427     384.098    -569.986
  H      -50.416     390.119    -565.554
  H      -53.294     384.420    -568.715
  H      -52.150     389.453    -563.402
  H      -53.103     391.753    -563.555
  H      -51.322     391.751    -563.693
  P      -49.891     388.178    -563.537
  C      -51.681     386.672    -562.401
  O      -50.908     387.865    -562.329
  O      -49.549     389.729    -563.340
  O      -48.655     387.344    -563.570
  H      -48.595     389.869    -563.495
  H      -52.306     386.599    -561.535
  H      -51.028     385.826    -562.442
  H      -52.291     386.695    -563.280

 6  7  8  9  10  11  12  13  14  15  26  29  33  34 0
 6-311+G(2d,p)
 ****
 36  38  39  40  41 0
 6-311+G(2d,p)
 ****
 1  2  3  4  5  16  17  18  19  20  21  22  23  24  25 0
 3-21G
 ****
 27  28  30  31  32  35  37  42  43  44  45  46  47 0
 3-21G
 ****
 48  49 0
 3-21G
 ****


