%nproc=1
%NoSave
%Mem=1900MB
#P OB98/GEN NMR

erre ene a

0 1
  C       83.875     189.996      45.547
  O       84.597     191.204      45.395
  H       83.381     190.002      46.522
  H       84.558     189.142      45.498
  H       83.114     189.909      44.766
  P       85.383     191.396      44.012
  C       83.318     191.716      42.452
  O       84.441     192.309      43.089
  C       82.935     192.513      41.198
  O       81.861     191.806      40.507
  C       82.416     193.929      41.496
  O       82.727     194.759      40.365
  C       80.913     193.699      41.558
  O       80.211     194.919      41.502
  C       80.755     192.732      40.389
  N       76.069     192.502      38.358
  C       77.126     193.300      38.093
  N       78.344     193.294      38.667
  C       78.431     192.324      39.594
  C       77.442     191.427      39.966
  C       76.207     191.541      39.304
  N       75.129     190.733      39.578
  N       77.905     190.577      40.958
  C       79.149     190.955      41.177
  N       79.505     192.011      40.382
  O       85.294     189.948      43.334
  O       86.792     191.871      44.134
  H       80.334     195.353      40.632
  H       86.101     189.438      43.533
  H       76.966     194.048      37.320
  H       79.823     190.513      41.896
  H       80.853     193.242      39.423
  H       80.632     193.221      42.503
  H       82.843     194.366      42.401
  H       83.790     192.534      40.512
  H       82.481     191.709      43.159
  H       83.560     190.686      42.167
  H       74.273     190.892      39.070
  H       75.212     190.026      40.293
  P       83.869     195.886      40.513
  C       85.532     194.225      39.360
  O       85.049     195.556      39.478
  O       84.540     195.496      41.916
  O       83.386     197.298      40.531
  H       84.915     196.295      42.330
  H       86.312     194.192      38.628
  H       84.733     193.581      39.058
  H       85.915     193.899      40.305

 6  7  8  9  10  11  12  13  14  15  25  28  32  33  34  35 0
 6-311+G(2d,p)
 ****
 36  37  40 0
 6-311+G(2d,p)
 ****
 1  2  3  4  5  16  17  18  19  20  21  22  23  24 0
 3-21G
 ****
 26  27  29  30  31  38  39 41  42  43  44  45  46  47  48 0
 3-21G
 ****


