%nproc=1
%NoSave
%Mem=1900MB
#P OB98/GEN NMR

erre ene a

0 1
  C     -415.962     658.974     -45.696
  O     -417.097     658.200     -46.064
  P     -416.907     657.091     -47.208
  C     -417.511     658.673     -49.166
  O     -416.502     657.878     -48.550
  C     -417.111     659.029     -50.598
  O     -418.141     659.892     -51.169
  C     -415.768     659.768     -50.717
  O     -415.025     659.225     -51.815
  C     -416.172     661.190     -51.081
  O     -415.138     661.881     -51.781
  C     -417.429     660.913     -51.910
  N     -417.729     665.459     -54.129
  C     -416.817     664.435     -54.324
  N     -415.813     664.689     -55.196
  N     -416.884     663.276     -53.720
  C     -417.959     663.151     -52.901
  C     -418.925     664.091     -52.622
  C     -418.807     665.397     -53.259
  O     -419.534     666.371     -53.055
  N     -419.868     663.593     -51.755
  C     -419.458     662.369     -51.503
  N     -418.287     662.067     -52.129
  O     -418.407     656.607     -47.491
  O     -416.030     655.940     -46.843
  H     -415.028     661.418     -52.641
  H     -418.472     655.637     -47.369
  H     -417.615     666.340     -54.596
  H     -419.972     661.673     -50.835
  H     -417.165     660.501     -52.886
  H     -416.402     661.749     -50.164
  H     -415.729     665.532     -55.721
  H     -415.153     659.724     -49.805
  H     -415.147     663.930     -55.376
  H     -417.103     658.107     -51.201
  H     -417.655     659.597     -48.606
  H     -418.448     658.107     -49.169
  P     -413.421     659.238     -51.678
  C     -413.181     661.469     -53.005
  O     -412.981     660.778     -51.783
  O     -412.920     658.591     -53.050
  O     -412.921     658.488     -50.479
  H     -412.036     658.200     -52.942
  H     -413.779     660.888     -53.717
  H     -412.202     661.679     -53.454
  H     -413.691     662.415     -52.800
  H     -416.237     659.667     -44.928
  H     -415.604     659.511     -46.550
  H     -415.191     658.327     -45.333

 3  4  5  6  7  8  9  10  11  12  23  26  30  31  33  0
 6-311+G(2d,p)
 ****
 35  36  37  38 0
 6-311+G(2d,p)
 ****
 1  2  13  14  15  16  17  18  19  20  21  22  24  25  27  28  29 0
 3-21G
 ****
 32  34  39  40  41  42  43  44  45  46  47  48  49 0
 3-21G
 ****


