%nproc=1
%NoSave
%Mem=1900MB
#P OB98/GEN NMR

erre ene a

0 1
  C       40.329      13.563       8.762
  O       38.938      13.554       8.511
  H       40.544      12.862       9.572
  H       40.645      14.564       9.068
  H       40.881      13.253       7.869
  P       38.430      14.384       7.233
  C       36.050      13.280       7.338
  O       36.834      14.459       7.372
  C       34.747      13.522       6.572
  O       33.793      14.147       7.466
  C       34.911      14.431       5.353
  O       34.022      13.980       4.330
  C       34.444      15.785       5.862
  O       34.020      16.639       4.803
  C       33.342      15.370       6.849
  N       33.066      16.405       7.843
  C       32.076      17.338       7.520
  O       31.492      17.273       6.437
  N       31.798      18.345       8.407
  C       32.493      18.454       9.495
  N       32.186      19.490      10.321
  C       33.577      17.520       9.856
  C       33.801      16.525       8.999
  O       38.660      13.334       6.048
  O       39.115      15.695       7.037
  H       33.777      17.511       5.184
  H       38.365      12.434       6.266
  H       34.136      17.658      10.770
  H       34.572      15.789       9.189
  H       32.410      15.149       6.314
  H       35.260      16.289       6.393
  H       35.934      14.450       4.973
  H       34.327      12.551       6.286
  H       31.451      20.119      10.024
  H       35.817      12.949       8.354
  H       32.697      19.703      11.165
  H       36.638      12.496       6.850
  P       34.511      12.858       3.299
  C       32.124      11.872       3.447
  O       33.234      12.178       2.610
  O       35.537      11.907       3.815
  O       35.122      13.731       2.094
  H       35.938      13.289       1.791
  H       31.348      11.426       2.861
  H       31.758      12.771       3.898
  H       32.431      11.189       4.212

 6  7  8  9  10  11  12  13  14  15  16  26  30  31  32  33  35 0
 6-311+G(2d,p)
 ****
 37  38 0
 6-311+G(2d,p)
 ****
 1  2  3  4  5  17  18  19  20  21  22  23  24  25 0
 3-21G
 ****
 27  28  29  34  36  39  40  41  42  43  44  45  46 0
 3-21G
 ****


