%nproc=1
%NoSave
%Mem=1900MB
#P OB98/GEN NMR

erre ene a

0 1
  C      126.374    -121.988     451.424
  O      126.065    -120.755     452.040
  H      125.773    -122.085     450.516
  H      126.126    -122.812     452.097
  H      127.430    -122.028     451.155
  P      126.907    -120.370     453.352
  C      126.251    -117.878     453.051
  O      126.269    -119.006     453.915
  C      124.949    -117.094     453.211
  O      123.857    -117.871     452.634
  C      124.573    -116.783     454.669
  O      123.935    -115.501     454.699
  C      123.524    -117.842     454.980
  O      122.684    -117.476     456.071
  C      122.814    -117.924     453.630
  N      118.567    -120.143     455.170
  C      119.072    -118.883     455.438
  N      118.331    -118.091     456.240
  N      120.204    -118.438     454.960
  C      120.824    -119.326     454.143
  C      120.434    -120.599     453.801
  C      119.191    -121.089     454.362
  O      118.704    -122.199     454.174
  N      121.354    -121.188     452.972
  C      122.295    -120.277     452.808
  N      122.017    -119.127     453.500
  O      128.313    -119.905     452.742
  O      127.064    -121.462     454.355
  H      122.046    -118.202     456.218
  H      128.935    -120.656     452.723
  H      117.696    -120.439     455.572
  H      123.189    -120.396     452.211
  H      122.139    -117.076     453.463
  H      124.011    -118.795     455.225
  H      117.429    -118.346     456.609
  H      125.417    -116.796     455.366
  H      118.664    -117.149     456.415
  H      125.023    -116.172     452.623
  H      126.337    -118.223     452.014
  H      127.106    -117.233     453.281
  P      124.377    -114.467     455.839
  C      124.429    -112.362     454.313
  O      123.840    -113.015     455.429
  O      125.957    -114.340     455.612
  O      124.053    -114.908     457.228
  H      126.397    -114.115     456.453
  H      123.964    -111.409     454.171
  H      124.292    -112.960     453.437
  H      125.475    -112.225     454.491

 6  7  8  9  10  11  12  13  14  15  26  29  33  34 0
 6-311+G(2d,p)
 ****
 36  38  39  40  41 0
 6-311+G(2d,p)
 ****
 1  2  3  4  5  16  17  18  19  20  21  22  23  24  25 0
 3-21G
 ****
 27  28  30  31  32  35  37  42  43  44  45  46  47 0
 3-21G
 ****
 48  49 0
 3-21G
 ****


