%nproc=1
%NoSave
%Mem=1900MB
#P OB98/GEN NMR

erre ene a

0 1
  C      -18.441    -555.309    -186.286
  O      -17.655    -554.141    -186.165
  H      -19.094    -555.386    -185.413
  H      -17.795    -556.190    -186.317
  H      -19.063    -555.274    -187.186
  P      -16.849    -553.661    -187.469
  C      -14.477    -554.047    -188.448
  O      -15.401    -554.363    -187.414
  C      -13.265    -554.974    -188.371
  O      -12.488    -554.631    -187.194
  C      -13.619    -556.466    -188.270
  O      -12.692    -557.221    -189.054
  C      -13.439    -556.780    -186.799
  O      -13.164    -558.160    -186.564
  C      -12.288    -555.841    -186.433
  N      -10.759    -557.584    -181.953
  C      -10.534    -558.067    -183.226
  N       -9.795    -559.194    -183.316
  N      -10.996    -557.505    -184.311
  C      -11.688    -556.360    -184.067
  C      -11.989    -555.778    -182.852
  C      -11.492    -556.431    -181.660
  O      -11.679    -556.063    -180.508
  N      -12.741    -554.642    -183.029
  C      -12.903    -554.545    -184.334
  N      -12.267    -555.561    -185.009
  O      -16.541    -552.120    -187.161
  O      -17.578    -553.826    -188.765
  H      -12.468    -558.430    -187.201
  H      -17.001    -551.556    -187.807
  H      -10.393    -558.057    -181.144
  H      -13.461    -553.763    -184.841
  H      -11.315    -556.261    -186.696
  H      -14.348    -556.516    -186.246
  H       -9.367    -559.660    -182.528
  H      -14.632    -556.682    -188.616
  H       -9.582    -559.560    -184.244
  H      -12.628    -554.784    -189.241
  H      -14.149    -553.004    -188.325
  H      -14.972    -554.153    -189.418
  P      -13.150    -557.646    -190.529
  C      -15.180    -558.854    -191.599
  O      -14.469    -558.563    -190.408
  O      -12.016    -558.688    -190.980
  O      -13.248    -556.506    -191.488
  H      -11.439    -558.280    -191.656
  H      -16.026    -559.467    -191.369
  H      -14.538    -559.373    -192.280
  H      -15.512    -557.941    -192.048

 6  7  8  9  10  11  12  13  14  15  26  29  33  34 0
 6-311+G(2d,p)
 ****
 36  38  39  40  41 0
 6-311+G(2d,p)
 ****
 1  2  3  4  5  16  17  18  19  20  21  22  23  24  25 0
 3-21G
 ****
 27  28  30  31  32  35  37  42  43  44  45  46  47 0
 3-21G
 ****
 48  49 0
 3-21G
 ****


