%nproc=1
%NoSave
%Mem=1900MB
#P OB98/GEN NMR

erre ene a

0 1
  C      146.056      97.308      42.485
  O      144.739      96.856      42.718
  H      146.706      96.918      43.271
  H      146.089      98.401      42.514
  H      146.425      96.952      41.518
  P      143.621      97.117      41.599
  C      143.379      96.503      39.105
  O      144.273      96.721      40.190
  C      144.062      96.857      37.788
  O      144.358      98.270      37.744
  C      145.394      96.148      37.567
  O      145.193      94.799      37.195
  C      146.008      97.027      36.489
  O      145.470      96.701      35.196
  C      145.547      98.436      36.938
  N      146.577      99.170      37.672
  C      147.860      99.142      37.132
  O      148.148      98.508      36.118
  N      148.811      99.856      37.814
  C      148.625     100.508      38.998
  O      149.527     101.091      39.598
  C      147.258     100.476      39.538
  C      146.314      99.820      38.864
  O      142.969      98.460      41.634
  O      142.561      95.941      41.845
  H      144.503      96.631      35.306
  H      141.798      96.287      42.344
  H      149.749      99.836      37.446
  H      147.076     100.978      40.481
  H      145.300      99.781      39.248
  H      145.256      99.035      36.067
  H      147.089      96.914      36.417
  H      146.014      96.216      38.471
  H      143.365      96.633      36.969
  H      142.497      97.141      39.242
  H      143.065      95.455      39.109
  P      146.300      93.688      37.510
  C      147.410      92.712      39.604
  O      146.673      93.804      39.070
  O      147.474      93.681      36.589
  O      145.500      92.307      37.432
  H      145.732      91.833      36.608
  H      147.605      92.887      40.641
  H      148.337      92.616      39.078
  H      146.843      91.811      39.495

 6  7  8  9  10  11  12  13  14  15  16  26  31  32  33  34  35 0
 6-311+G(2d,p)
 ****
 36  37 0
 6-311+G(2d,p)
 ****
 1  2  3  4  5  17  18  19  20  21  22  23  24  25 0
 3-21G
 ****
 27  28  29  30  38  39  40  41  42  43  44  45 0
 3-21G
 ****


