%nproc=1
%NoSave
%Mem=1900MB
#P OB98/GEN NMR

erre ene a

0 1
  C       50.822      41.188     169.632
  O       50.198      42.359     169.142
  H       50.723      41.166     170.720
  H       51.886      41.193     169.375
  H       50.341      40.300     169.213
  P       50.291      42.605     167.559
  C       52.588      43.755     167.212
  O       51.186      43.924     167.360
  C       53.280      45.111     167.093
  O       52.918      45.762     165.856
  C       52.949      46.087     168.217
  O       53.764      45.848     169.352
  C       53.247      47.421     167.548
  O       54.665      47.695     167.552
  C       52.744      47.184     166.117
  N       49.639      51.066     165.232
  C       50.994      51.050     165.499
  N       51.612      52.250     165.567
  N       51.684      49.958     165.693
  C       50.929      48.834     165.652
  C       49.579      48.718     165.401
  C       48.840      49.933     165.133
  O       47.656      50.006     164.809
  N       49.181      47.405     165.427
  C       50.278      46.736     165.728
  N       51.364      47.560     165.880
  O       48.816      43.099     167.171
  O       50.693      41.420     166.748
  H       54.823      48.566     167.145
  H       48.580      42.726     166.301
  H       49.166      51.934     165.059
  H       50.340      45.661     165.834
  H       53.348      47.722     165.378
  H       52.772      48.250     168.074
  H       51.101      53.108     165.716
  H       51.884      46.042     168.477
  H       52.589      52.239     165.836
  H       54.362      44.926     167.053
  H       52.780      43.168     166.310
  H       52.981      43.216     168.081
  P       53.071      45.852     170.797
  C       54.828      47.501     171.763
  O       54.191      46.239     171.881
  O       52.804      44.297     171.070
  O       51.802      46.632     170.878
  H       51.856      44.098     170.958
  H       55.544      47.614     172.550
  H       54.096      48.278     171.832
  H       55.325      47.563     170.817

 6  7  8  9  10  11  12  13  14  15  26  29  33  34 0
 6-311+G(2d,p)
 ****
 36  38  39  40  41 0
 6-311+G(2d,p)
 ****
 1  2  3  4  5  16  17  18  19  20  21  22  23  24  25 0
 3-21G
 ****
 27  28  30  31  32  35  37  42  43  44  45  46  47 0
 3-21G
 ****
 48  49 0
 3-21G
 ****


