%nproc=1
%NoSave
%Mem=1900MB
#P OB98/GEN NMR

erre ene a

0 1
  C       65.266    -245.309      20.088
  O       64.658    -245.768      21.280
  P       63.051    -245.810      21.323
  C       63.306    -248.060      22.602
  O       62.641    -246.807      22.509
  C       63.327    -248.539      24.050
  O       62.056    -248.273      24.680
  C       63.557    -250.035      24.223
  O       64.918    -250.371      24.020
  C       63.063    -250.233      25.652
  O       64.064    -249.801      26.590
  C       61.853    -249.280      25.709
  N       57.862    -251.627      27.900
  C       58.987    -251.084      28.420
  N       60.015    -250.496      27.768
  C       59.798    -250.494      26.442
  C       58.712    -251.028      25.769
  C       57.709    -251.613      26.555
  N       56.565    -252.168      26.022
  N       58.846    -250.855      24.406
  C       59.989    -250.218      24.262
  N       60.593    -249.962      25.464
  O       62.674    -246.622      20.001
  O       62.392    -244.467      21.362
  H       63.694    -249.924      27.488
  H       61.836    -246.296      19.616
  H       59.076    -251.129      29.498
  H       60.413    -249.912      23.319
  H       61.766    -248.760      26.668
  H       62.819    -251.276      25.886
  H       62.929    -250.602      23.531
  H       64.096    -247.968      24.590
  H       64.340    -247.954      22.254
  H       55.971    -252.696      26.638
  H       56.515    -252.283      25.017
  H       62.798    -248.784      21.958
  P       65.237    -251.834      23.446
  C       67.624    -251.016      22.924
  O       66.828    -251.974      23.610
  O       65.072    -251.603      21.870
  O       64.424    -252.934      24.033
  H       65.549    -250.817      21.561
  H       68.670    -251.190      23.161
  H       67.346    -250.002      23.235
  H       67.476    -251.121      21.840
  H       66.330    -245.333      20.198
  H       64.951    -244.306      19.890
  H       64.977    -245.941      19.274

 3  4  5  6  7  8  9  10  11  12  22  25  29  30  31  32 0
 6-311+G(2d,p)
 ****
 33  36  37 0
 6-311+G(2d,p)
 ****
 1  2  13  14  15  16  17  18  19  20  21  23  24  26 0
 3-21G
 ****
 27  28  34  35  38  39  40  41  42  43  44  45  46  47  48 0
 3-21G
 ****


