%nproc=1
%NoSave
%Mem=1900MB
#P OB98/GEN NMR

erre ene a

0 1
  C       16.226     538.627     146.327
  O       17.196     537.675     146.713
  H       15.763     539.034     147.223
  H       15.453     538.149     145.716
  H       16.703     539.447     145.766
  P       17.987     536.937     145.524
  C       18.344     534.730     146.841
  O       18.948     535.848     146.226
  C       19.218     533.497     146.678
  O       19.183     533.017     145.312
  C       20.687     533.697     147.030
  O       20.898     533.583     148.427
  C       21.345     532.577     146.254
  O       21.253     531.308     146.946
  C       20.510     532.543     144.953
  N       23.467     532.504     140.850
  C       23.067     531.474     141.670
  N       23.591     530.254     141.403
  N       22.252     531.621     142.699
  C       21.853     532.902     142.876
  C       22.158     534.006     142.108
  C       23.025     533.828     140.970
  O       23.357     534.689     140.157
  N       21.531     535.121     142.590
  C       20.881     534.713     143.655
  N       21.058     533.355     143.882
  O       19.015     538.049     144.999
  O       17.134     536.411     144.414
  H       21.578     530.600     146.368
  H       19.171     537.919     144.052
  H       24.081     532.329     140.080
  H       20.271     535.325     144.307
  H       20.394     531.531     144.556
  H       22.414     532.749     146.089
  H       24.446     530.143     140.874
  H       21.044     534.662     146.643
  H       23.321     529.488     142.010
  H       18.782     532.686     147.307
  H       17.364     534.541     146.380
  H       18.197     534.947     147.913
  P       21.534     534.855     149.186
  C       23.633     533.498     149.925
  O       22.509     534.264     150.325
  O       20.297     535.444     150.031
  O       22.136     535.899     148.283
  H       20.489     536.365     150.311
  H       24.175     533.181     150.791
  H       24.269     534.095     149.305
  H       23.303     532.640     149.377

 6  7  8  9  10  11  12  13  14  15  26  29  33  34 0
 6-311+G(2d,p)
 ****
 36  38  39  40  41 0
 6-311+G(2d,p)
 ****
 1  2  3  4  5  16  17  18  19  20  21  22  23  24  25 0
 3-21G
 ****
 27  28  30  31  32  35  37  42  43  44  45  46  47 0
 3-21G
 ****
 48  49 0
 3-21G
 ****


