%nproc=1
%NoSave
%Mem=1900MB
#P OB98/GEN NMR

erre ene a

0 1
  C      777.325     261.356     312.318
  O      777.757     261.409     313.663
  H      777.423     260.333     311.939
  H      776.276     261.652     312.270
  H      777.917     262.032     311.700
  P      779.278     260.988     313.943
  C      778.407     258.742     314.897
  O      779.244     259.873     315.107
  C      778.990     257.523     315.605
  O      780.389     257.398     315.207
  C      778.949     257.601     317.141
  O      778.379     256.392     317.685
  C      780.399     257.683     317.559
  O      780.662     257.011     318.788
  C      781.122     257.030     316.382
  N      785.472     256.515     313.756
  C      784.199     256.238     313.425
  N      783.077     256.492     314.137
  C      783.355     257.122     315.285
  C      784.614     257.492     315.754
  C      785.712     257.139     314.939
  N      787.023     257.369     315.302
  N      784.525     258.110     316.981
  C      783.238     258.085     317.278
  N      782.498     257.479     316.294
  O      779.891     262.279     314.675
  O      780.060     260.637     312.721
  H      781.619     257.091     318.964
  H      780.621     262.634     314.137
  H      784.056     255.746     312.475
  H      782.796     258.441     318.200
  H      781.116     255.936     316.453
  H      780.677     258.738     317.664
  H      778.371     258.461     317.502
  H      778.479     256.622     315.245
  H      778.337     258.537     313.819
  H      787.743     256.980     314.716
  H      787.207     257.730     316.225
  H      777.406     258.961     315.279
  P      776.827     256.454     318.099
  C      776.936     255.515     320.517
  O      776.544     255.281     319.166
  O      776.075     255.963     316.769
  O      776.369     257.821     318.500
  H      775.435     256.634     316.482
  H      776.691     254.661     321.113
  H      776.420     256.373     320.895
  H      777.991     255.687     320.557

 6  7  8  9  10  11  12  13  14  15  25  28  32  33  34  35 0
 6-311+G(2d,p)
 ****
 36  39  40 0
 6-311+G(2d,p)
 ****
 1  2  3  4  5  16  17  18  19  20  21  22  23  24 0
 3-21G
 ****
 26  27  29  30  31  37  38  41  42  43  44  45  46  47  48 0
 3-21G
 ****


