%nproc=1
%NoSave
%Mem=1900MB
#P OB98/GEN NMR

erre ene a

0 1
  C      265.814    -476.070    -324.420
  O      264.896    -476.355    -323.382
  H      266.179    -475.047    -324.294
  H      265.317    -476.152    -325.389
  H      266.665    -476.757    -324.375
  P      264.302    -477.845    -323.326
  C      265.330    -480.000    -322.313
  O      265.101    -478.608    -322.158
  C      266.109    -480.555    -321.121
  O      267.508    -480.146    -321.231
  C      265.597    -480.080    -319.752
  O      265.760    -481.152    -318.813
  C      266.580    -478.975    -319.388
  O      266.619    -478.719    -317.983
  C      267.868    -479.566    -319.960
  N      271.366    -476.965    -317.437
  C      270.498    -477.955    -317.012
  N      270.569    -478.303    -315.703
  N      269.629    -478.543    -317.787
  C      269.687    -478.120    -319.080
  C      270.499    -477.150    -319.628
  C      271.432    -476.478    -318.738
  O      272.209    -475.585    -319.060
  N      270.233    -476.987    -320.966
  C      269.271    -477.855    -321.222
  N      268.909    -478.563    -320.108
  O      264.883    -478.503    -324.669
  O      262.815    -477.942    -323.256
  H      267.053    -479.487    -317.549
  H      264.238    -478.414    -325.393
  H      272.003    -476.533    -316.792
  H      268.808    -478.011    -322.189
  H      268.280    -480.361    -319.327
  H      266.311    -478.045    -319.899
  H      271.241    -477.925    -315.054
  H      264.550    -479.745    -319.753
  H      269.965    -479.053    -315.379
  H      266.099    -481.656    -321.179
  H      265.914    -480.165    -323.226
  H      264.369    -480.520    -322.409
  P      264.466    -481.658    -318.011
  C      263.046    -483.837    -318.078
  O      264.328    -483.237    -318.234
  O      263.256    -481.065    -318.879
  O      264.407    -481.196    -316.591
  H      262.477    -480.921    -318.305
  H      263.120    -484.889    -318.259
  H      262.361    -483.402    -318.776
  H      262.693    -483.671    -317.082

 6  7  8  9  10  11  12  13  14  15  26  29  33  34 0
 6-311+G(2d,p)
 ****
 36  38  39  40  41 0
 6-311+G(2d,p)
 ****
 1  2  3  4  5  16  17  18  19  20  21  22  23  24  25 0
 3-21G
 ****
 27  28  30  31  32  35  37  42  43  44  45  46  47 0
 3-21G
 ****
 48  49 0
 3-21G
 ****


