%nproc=1
%NoSave
%Mem=1900MB
#P OB98/GEN NMR

erre ene a

0 1
  C     -560.604     267.947    -112.223
  O     -559.338     268.138    -112.860
  P     -558.044     267.718    -112.004
  C     -557.146     270.086    -111.462
  O     -557.737     268.896    -110.958
  C     -557.048     271.166    -110.378
  O     -556.106     270.775    -109.338
  C     -556.587     272.529    -110.905
  O     -557.265     273.527    -110.132
  C     -555.111     272.546    -110.553
  O     -554.585     273.868    -110.562
  C     -555.165     271.861    -109.187
  N     -551.703     272.200    -105.526
  C     -552.861     272.925    -105.728
  N     -553.169     273.840    -104.785
  N     -553.650     272.764    -106.758
  C     -553.236     271.785    -107.599
  C     -552.120     270.987    -107.503
  C     -551.237     271.199    -106.375
  O     -550.204     270.582    -106.149
  N     -552.054     270.081    -108.542
  C     -553.102     270.389    -109.288
  N     -553.878     271.370    -108.734
  O     -556.854     267.824    -113.067
  O     -558.139     266.350    -111.412
  H     -554.467     274.132    -111.500
  H     -556.622     266.940    -113.402
  H     -551.124     272.377    -104.725
  H     -553.359     269.914    -110.221
  H     -555.534     272.532    -108.398
  H     -554.541     271.943    -111.271
  H     -552.632     273.979    -103.940
  H     -556.769     272.689    -111.972
  H     -554.034     274.356    -104.886
  H     -558.032     271.266    -109.907
  H     -557.739     270.472    -112.296
  H     -556.160     269.847    -111.875
  P     -558.341     274.452    -110.877
  C     -556.718     275.999    -112.169
  O     -557.674     274.961    -112.236
  O     -558.376     275.767    -109.964
  O     -559.702     273.847    -110.999
  H     -559.297     276.092    -109.900
  H     -556.043     275.917    -113.023
  H     -556.128     275.948    -111.248
  H     -557.228     276.965    -112.210
  H     -561.386     268.259    -112.883
  H     -560.643     268.527    -111.325
  H     -560.731     266.912    -111.984

 3  4  5  6  7  8  9  10  11  12  23  26  30  31 0
 6-311+G(2d,p)
 ****
 33  35  36  37  38 0
 6-311+G(2d,p)
 ****
 1  2  13  14  15  16  17  18  19  20  21  22  24  25 0
 3-21G
 ****
 27  28  29  32  34  39  40  41  42  43  44  45  46  47  48  49 0
 3-21G
 ****


