%nproc=1
%NoSave
%Mem=1900MB
#P OB98/GEN NMR

erre ene a

0 1
  C     -245.451      45.303    -100.087
  O     -245.910      44.944    -101.397
  P     -246.478      46.145    -102.305
  C     -244.558      45.974    -104.048
  O     -245.959      45.919    -103.809
  C     -244.208      45.618    -105.496
  O     -244.572      44.237    -105.745
  C     -244.919      46.468    -106.557
  O     -244.013      46.690    -107.648
  C     -246.021      45.551    -107.060
  O     -246.464      45.910    -108.365
  C     -245.314      44.200    -106.975
  N     -245.952      39.414    -108.488
  C     -244.828      40.213    -108.538
  N     -243.723      39.665    -109.092
  N     -244.786      41.439    -108.087
  C     -245.955      41.847    -107.531
  C     -247.136      41.144    -107.413
  C     -247.176      39.803    -107.957
  O     -248.157      39.065    -107.990
  N     -248.103      41.895    -106.790
  C     -247.514      43.047    -106.541
  N     -246.213      43.068    -106.979
  O     -245.647      47.413    -101.792
  O     -247.948      46.363    -102.162
  H     -245.671      45.964    -108.934
  H     -246.258      48.114    -101.496
  H     -245.934      38.485    -108.870
  H     -247.983      43.902    -106.073
  H     -244.600      44.070    -107.798
  H     -246.877      45.605    -106.379
  H     -243.665      38.706    -109.400
  H     -245.302      47.424    -106.189
  H     -242.874      40.219    -109.096
  H     -243.121      45.694    -105.613
  H     -244.049      45.280    -103.373
  H     -244.204      46.985    -103.814
  P     -243.657      48.218    -107.978
  C     -241.526      48.473    -106.506
  O     -242.067      48.344    -107.805
  O     -244.239      49.016    -106.717
  O     -244.218      48.712    -109.272
  H     -244.468      49.929    -106.971
  H     -242.267      48.274    -105.727
  H     -241.142      49.490    -106.380
  H     -240.699      47.764    -106.395
  H     -245.099      44.429     -99.580
  H     -246.257      45.736     -99.533
  H     -244.654      46.012    -100.170

 3  4  5  6  7  8  9  10  11  12  23  26  30  31  33  0
 6-311+G(2d,p)
 ****
 35  36  37  38 0
 6-311+G(2d,p)
 ****
 1  2  13  14  15  16  17  18  19  20  21  22  24  25  27  28  29 0
 3-21G
 ****
 32  34  39  40  41  42  43  44  45  46  47  48  49 0
 3-21G
 ****


