%nproc=1
%NoSave
%Mem=1900MB
#P OB98/GEN NMR

erre ene a

0 1
  C     -894.296     469.840      82.148
  O     -892.937     469.853      82.559
  H     -894.889     469.363      82.936
  H     -894.402     469.263      81.227
  H     -894.664     470.858      81.999
  P     -891.869     470.635      81.654
  C     -891.498     468.395      80.410
  O     -891.701     469.801      80.299
  C     -890.468     467.929      79.393
  O     -891.014     467.998      78.061
  C     -889.200     468.780      79.351
  O     -888.359     468.494      80.456
  C     -888.631     468.413      77.997
  O     -887.922     467.162      78.065
  C     -889.922     468.268      77.147
  N     -890.190     469.462      76.334
  C     -889.596     469.497      75.077
  O     -888.847     468.623      74.663
  N     -889.860     470.609      74.329
  C     -890.564     471.721      74.732
  O     -890.703     472.720      74.059
  C     -891.160     471.627      76.078
  C     -890.954     470.513      76.800
  O     -890.587     470.992      82.331
  O     -892.661     471.943      81.173
  H     -888.533     466.525      78.483
  H     -892.347     472.719      81.680
  H     -889.424     470.669      73.426
  H     -891.734     472.467      76.441
  H     -891.369     470.439      77.801
  H     -889.843     467.407      76.485
  H     -887.932     469.164      77.628
  H     -889.475     469.851      79.345
  H     -890.222     466.884      79.606
  H     -892.452     467.884      80.229
  H     -891.170     468.174      81.435
  P     -887.116     469.445      80.789
  C     -885.484     467.986      79.419
  O     -886.054     469.286      79.596
  O     -886.546     469.307      82.167
  O     -887.688     470.924      80.560
  H     -887.634     471.428      81.390
  H     -884.796     468.007      78.599
  H     -886.262     467.280      79.214
  H     -884.967     467.699      80.311

 6  7  8  9  10  11  12  13  14  15  16  26  31  32  33  34  35 0
 6-311+G(2d,p)
 ****
 36  37 0
 6-311+G(2d,p)
 ****
 1  2  3  4  5  17  18  19  20  21  22  23  24  25 0
 3-21G
 ****
 27  28  29  30  38  39  40  41  42  43  44  45 0
 3-21G
 ****


