%nproc=1
%NoSave
%Mem=1900MB
#P OB98/GEN NMR

erre ene a

0 1
  C       21.897     -97.988     -76.023
  O       22.321     -98.884     -77.033
  H       20.818     -97.840     -76.114
  H       22.397     -97.022     -76.143
  H       22.117     -98.402     -75.035
  P       23.897     -99.182     -77.105
  C       24.037     -97.762     -79.271
  O       24.542     -97.986     -77.962
  C       25.151     -97.290     -80.201
  O       25.621     -95.980     -79.813
  C       26.372     -98.204     -80.234
  O       26.175     -99.284     -81.130
  C       27.452     -97.238     -80.702
  O       27.392     -97.053     -82.135
  C       27.067     -95.944     -79.970
  N       28.029     -92.602     -76.311
  C       27.416     -92.430     -77.534
  N       27.023     -91.173     -77.847
  N       27.214     -93.399     -78.390
  C       27.710     -94.588     -77.972
  C       28.339     -94.885     -76.783
  C       28.505     -93.814     -75.826
  O       28.965     -93.920     -74.691
  N       28.678     -96.215     -76.721
  C       28.288     -96.707     -77.879
  N       27.698     -95.758     -78.676
  O       23.995    -100.439     -78.095
  O       24.554     -99.473     -75.797
  H       28.135     -96.488     -82.411
  H       24.698    -101.035     -77.775
  H       28.129     -91.826     -75.682
  H       28.397     -97.742     -78.187
  H       27.304     -95.054     -80.564
  H       28.454     -97.614     -80.482
  H       27.405     -90.364     -77.381
  H       26.622     -98.563     -79.226
  H       26.642     -91.038     -78.776
  H       24.722     -97.191     -81.206
  H       23.256     -96.995     -79.223
  H       23.605     -98.691     -79.652
  P       27.170    -100.538     -81.038
  C       28.108    -100.357     -83.452
  O       28.383    -100.284     -82.059
  O       26.332    -101.712     -81.730
  O       27.572    -100.915     -79.649
  H       25.996    -102.325     -81.053
  H       29.005    -100.167     -84.003
  H       27.370     -99.626     -83.709
  H       27.741    -101.333     -83.693

 6  7  8  9  10  11  12  13  14  15  26  29  33  34 0
 6-311+G(2d,p)
 ****
 36  38  39  40  41 0
 6-311+G(2d,p)
 ****
 1  2  3  4  5  16  17  18  19  20  21  22  23  24  25 0
 3-21G
 ****
 27  28  30  31  32  35  37  42  43  44  45  46  47 0
 3-21G
 ****
 48  49 0
 3-21G
 ****


