%nproc=1
%NoSave
%Mem=1900MB
#P OB98/GEN NMR

erre ene a

0 1
  C      348.919     754.313    -488.471
  O      348.318     755.016    -489.542
  H      349.816     753.807    -488.860
  H      348.247     753.560    -488.066
  H      349.226     755.007    -487.692
  P      346.845     755.630    -489.311
  C      347.821     758.024    -489.458
  O      347.089     757.081    -488.665
  C      346.881     758.863    -490.318
  O      345.809     759.404    -489.506
  C      347.545     760.075    -490.956
  O      348.485     759.754    -491.965
  C      346.363     760.970    -491.288
  O      345.755     760.671    -492.528
  C      345.371     760.625    -490.138
  N      345.247     761.720    -489.175
  C      344.781     762.930    -489.691
  O      344.512     763.091    -490.880
  N      344.681     763.962    -488.802
  C      345.036     763.909    -487.473
  O      344.962     764.881    -486.729
  C      345.545     762.608    -486.996
  C      345.634     761.589    -487.859
  O      345.905     754.768    -488.520
  O      346.328     755.957    -490.783
  H      346.445     760.792    -493.229
  H      345.355     756.095    -490.792
  H      344.328     764.835    -489.145
  H      345.847     762.536    -485.951
  H      346.018     760.629    -487.512
  H      344.374     760.420    -490.543
  H      346.652     762.020    -491.307
  H      348.115     760.595    -490.178
  H      346.442     758.210    -491.082
  H      348.496     757.452    -490.107
  H      348.427     758.664    -488.801
  P      349.856     760.542    -492.197
  C      351.233     758.350    -491.889
  O      351.028     759.699    -491.488
  O      349.808     762.022    -492.015
  O      350.136     760.254    -493.753
  H      350.568     761.044    -494.135
  H      352.042     757.930    -491.329
  H      351.468     758.320    -492.932
  H      350.343     757.785    -491.708

 6  7  8  9  10  11  12  13  14  15  16  26  31  32  33  34  35 0
 6-311+G(2d,p)
 ****
 36  37 0
 6-311+G(2d,p)
 ****
 1  2  3  4  5  17  18  19  20  21  22  23  24  25 0
 3-21G
 ****
 27  28  29  30  38  39  40  41  42  43  44  45 0
 3-21G
 ****


