%nproc=1
%NoSave
%Mem=1900MB
#P OB98/GEN NMR

erre ene a

0 1
  C     -135.304    -554.203     313.110
  O     -136.415    -553.345     313.295
  P     -136.496    -551.920     312.564
  C     -138.807    -551.440     313.575
  O     -137.456    -551.024     313.491
  C     -139.469    -550.844     314.822
  O     -138.825    -551.408     315.988
  C     -139.333    -549.326     314.984
  O     -140.316    -548.572     314.274
  C     -139.571    -549.181     316.479
  O     -140.984    -549.263     316.761
  C     -138.850    -550.404     317.041
  N     -135.930    -548.654     320.861
  C     -137.261    -548.869     320.765
  N     -137.967    -549.310     319.700
  C     -137.142    -549.601     318.686
  C     -135.773    -549.444     318.636
  C     -135.150    -548.945     319.793
  N     -133.789    -548.758     319.899
  N     -135.279    -549.829     317.401
  C     -136.338    -550.221     316.723
  N     -137.492    -550.108     317.460
  O     -136.866    -551.985     311.116
  O     -135.063    -551.272     312.807
  H     -141.386    -548.432     316.440
  H     -134.912    -550.533     312.184
  H     -137.844    -548.627     321.651
  H     -136.329    -550.589     315.707
  H     -139.375    -550.850     317.897
  H     -139.222    -548.215     316.866
  H     -138.321    -548.989     314.740
  H     -140.521    -551.147     314.838
  H     -138.833    -552.536     313.649
  H     -133.426    -548.516     320.800
  H     -133.200    -549.121     319.160
  H     -139.351    -551.148     312.664
  P     -139.847    -547.163     313.660
  C     -142.333    -546.488     313.221
  O     -141.106    -546.182     313.831
  O     -139.279    -547.245     312.284
  O     -138.802    -546.627     314.760
  H     -139.192    -546.394     315.612
  H     -143.102    -545.792     313.592
  H     -142.651    -547.501     313.456
  H     -142.258    -546.368     312.140
  H     -135.445    -555.097     313.681
  H     -134.413    -553.708     313.436
  H     -135.215    -554.453     312.073

 3  4  5  6  7  8  9  10  11  12  22  25  29  30  31  32 0
 6-311+G(2d,p)
 ****
 33  36  37 0
 6-311+G(2d,p)
 ****
 1  2  13  14  15  16  17  18  19  20  21  23  24  26 0
 3-21G
 ****
 27  28  34  35  38  39  40  41  42  43  44  45  46  47  48 0
 3-21G
 ****


