%nproc=1
%NoSave
%Mem=1900MB
#P OB98/GEN NMR

erre ene a

0 1
  C       62.012     202.250      79.592
  O       60.606     202.177      79.460
  H       62.373     203.115      79.030
  H       62.473     201.347      79.183
  H       62.290     202.368      80.643
  P       59.851     201.078      80.346
  C       60.514     198.957      78.948
  O       60.641     199.691      80.159
  C       60.685     197.464      79.223
  O       61.895     197.205      79.962
  C       59.592     196.870      80.095
  O       58.355     196.762      79.426
  C       60.222     195.532      80.452
  O       60.089     194.594      79.375
  C       61.705     195.936      80.646
  N       62.081     196.018      82.050
  C       62.801     194.926      82.552
  O       63.087     193.981      81.818
  N       63.150     194.924      83.879
  C       62.834     195.930      84.632
  N       63.201     195.862      85.940
  C       62.101     197.112      84.138
  C       61.755     197.086      82.852
  O       58.503     200.830      79.523
  O       59.643     201.447      81.778
  H       60.695     194.899      78.670
  H       58.652     200.606      78.589
  H       61.866     197.931      84.801
  H       61.213     197.912      82.409
  H       62.368     195.212      80.157
  H       59.755     195.078      81.328
  H       59.490     197.451      81.021
  H       60.754     196.947      78.257
  H       63.684     195.027      86.249
  H       61.242     199.299      78.206
  H       62.982     196.569      86.626
  H       59.515     199.154      78.545
  P       57.037     197.442      80.034
  C       56.743     195.299      81.431
  O       56.771     196.723      81.445
  O       55.859     197.470      79.120
  O       57.546     198.893      80.484
  H       58.260     198.886      81.145
  H       56.559     194.936      82.421
  H       57.684     194.927      81.084
  H       55.964     194.964      80.778

 6  7  8  9  10  11  12  13  14  15  16  26  30  31  32  33  35 0
 6-311+G(2d,p)
 ****
 37  38 0
 6-311+G(2d,p)
 ****
 1  2  3  4  5  17  18  19  20  21  22  23  24  25 0
 3-21G
 ****
 27  28  29  34  36  39  40  41  42  43  44  45  46 0
 3-21G
 ****


