%nproc=1
%NoSave
%Mem=1900MB
#P OB98/GEN NMR

erre ene a

0 1
  C      -76.612     482.476    -595.798
  O      -76.525     482.660    -597.203
  H      -75.956     483.200    -595.305
  H      -76.286     481.467    -595.533
  H      -77.637     482.639    -595.454
  P      -77.586     481.852    -598.091
  C      -78.910     483.888    -599.094
  O      -78.906     482.769    -598.215
  C      -80.022     483.731    -600.131
  O      -81.306     483.594    -599.499
  C      -80.201     484.932    -601.044
  O      -79.165     485.057    -601.994
  C      -81.558     484.622    -601.660
  O      -81.435     483.747    -602.788
  C      -82.301     483.921    -600.500
  N      -83.373     484.745    -599.972
  C      -84.593     484.071    -599.773
  O      -84.689     482.874    -600.031
  N      -85.668     484.798    -599.327
  C      -85.556     486.069    -599.122
  N      -86.669     486.738    -598.715
  C      -84.285     486.816    -599.314
  C      -83.248     486.090    -599.740
  O      -78.046     480.680    -597.108
  O      -77.064     481.372    -599.408
  H      -80.669     483.165    -602.617
  H      -78.290     480.990    -596.215
  H      -84.240     487.874    -599.119
  H      -82.273     486.553    -599.908
  H      -82.728     482.961    -600.830
  H      -82.056     485.529    -602.021
  H      -80.308     485.848    -600.442
  H      -79.822     482.818    -600.714
  H      -87.536     486.207    -598.646
  H      -77.937     483.991    -599.593
  H      -86.717     487.740    -598.605
  H      -79.075     484.787    -598.493
  P      -78.951     486.413    -602.820
  C      -77.279     487.152    -600.999
  O      -78.413     487.511    -601.776
  O      -80.124     486.850    -603.642
  O      -77.627     486.110    -603.684
  H      -76.832     485.896    -603.155
  H      -77.022     487.962    -600.348
  H      -76.455     486.940    -601.648
  H      -77.506     486.284    -600.416

 6  7  8  9  10  11  12  13  14  15  16  26  30  31  32  33  35 0
 6-311+G(2d,p)
 ****
 37  38 0
 6-311+G(2d,p)
 ****
 1  2  3  4  5  17  18  19  20  21  22  23  24  25 0
 3-21G
 ****
 27  28  29  34  36  39  40  41  42  43  44  45  46 0
 3-21G
 ****


