%nproc=1
%NoSave
%Mem=1900MB
#P OB98/GEN NMR

erre ene a

0 1
  C     -368.902     697.383    -844.628
  O     -369.117     696.218    -845.421
  P     -368.679     696.342    -846.976
  C     -366.780     694.540    -846.924
  O     -367.134     695.924    -847.076
  C     -365.317     694.279    -847.261
  O     -365.058     694.517    -848.686
  C     -364.341     695.169    -846.472
  O     -363.171     694.375    -846.226
  C     -364.039     696.249    -847.471
  O     -362.864     697.024    -847.136
  C     -363.954     695.423    -848.751
  N     -361.293     698.584    -851.725
  C     -360.969     697.950    -850.636
  N     -361.739     697.135    -849.879
  C     -362.967     696.992    -850.422
  C     -363.430     697.592    -851.577
  C     -362.551     698.447    -852.288
  N     -362.876     699.125    -853.424
  N     -364.771     697.216    -851.806
  C     -365.108     696.502    -850.788
  N     -364.031     696.247    -849.979
  O     -368.660     697.912    -847.207
  O     -369.581     695.636    -847.882
  H     -362.719     697.673    -847.804
  H     -369.484     698.200    -847.639
  H     -359.978     698.109    -850.262
  H     -366.072     696.090    -850.545
  H     -363.011     694.864    -848.831
  H     -364.843     696.971    -847.501
  H     -364.753     695.560    -845.484
  H     -365.114     693.206    -847.071
  H     -367.421     693.939    -847.585
  H     -362.183     699.687    -853.855
  H     -363.800     699.032    -853.828
  H     -367.053     694.220    -845.912
  P     -363.024     693.694    -844.782
  C     -362.439     691.407    -845.774
  O     -363.369     692.140    -844.994
  O     -364.360     694.224    -844.004
  O     -361.734     694.023    -844.013
  H     -365.118     694.080    -844.576
  H     -362.738     690.347    -845.789
  H     -361.425     691.454    -845.287
  H     -362.434     691.780    -846.813
  H     -369.223     697.196    -843.625
  H     -369.461     698.200    -845.035
  H     -367.860     697.628    -844.629

 3  4  5  6  7  8  9  10  11  12  22  25  29  30  31  32 0
 6-311+G(2d,p)
 ****
 33  36  37 0
 6-311+G(2d,p)
 ****
 1  2  13  14  15  16  17  18  19  20  21  23  24  26 0
 3-21G
 ****
 27  28  34  35  38  39  40  41  42  43  44  45  46  47  48 0
 3-21G
 ****


