%nproc=1
%NoSave
%Mem=1900MB
#P OB98/GEN NMR

erre ene a

0 1
  C     -357.412     389.468    -183.782
  O     -357.009     389.399    -182.426
  P     -356.949     390.719    -181.520
  C     -355.452     392.873    -181.504
  O     -355.620     391.522    -181.872
  C     -353.946     393.181    -181.395
  O     -353.292     392.887    -182.651
  C     -353.694     394.641    -181.053
  O     -353.542     394.815    -179.656
  C     -352.438     394.958    -181.842
  O     -351.273     394.503    -181.126
  C     -352.653     394.109    -183.118
  N     -353.495     394.672    -184.205
  C     -352.892     395.321    -185.271
  O     -351.677     395.427    -185.410
  N     -353.750     395.873    -186.195
  C     -355.117     395.788    -186.153
  O     -355.869     396.480    -186.841
  C     -355.668     394.876    -185.156
  C     -354.852     394.390    -184.221
  O     -356.661     390.142    -180.051
  O     -358.179     391.570    -181.552
  H     -350.498     394.781    -181.638
  H     -357.485     390.081    -179.537
  H     -353.326     396.460    -186.906
  H     -356.739     394.673    -185.184
  H     -355.249     393.733    -183.452
  H     -351.695     393.832    -183.574
  H     -352.316     396.027    -181.976
  H     -354.521     395.264    -181.434
  H     -353.515     392.526    -180.618
  H     -355.953     393.071    -180.552
  H     -355.914     393.529    -182.255
  P     -353.691     396.274    -179.012
  C     -352.462     398.469    -179.505
  O     -352.360     397.066    -179.450
  O     -354.010     396.310    -177.548
  O     -354.850     396.947    -179.883
  H     -355.715     396.877    -179.419
  H     -351.462     398.890    -179.639
  H     -352.896     398.862    -178.579
  H     -353.083     398.756    -180.364
  H     -357.386     388.489    -184.212
  H     -356.747     390.111    -184.320
  H     -358.407     389.857    -183.839

 3  4  5  6  7  8  9  10  11  12  13  23  28  29  30  31  32 0
 6-311+G(2d,p)
 ****
 33  34 0
 6-311+G(2d,p)
 ****
 1  2  14  15  16  17  18  19  20  21  22  24  25  26  27 0
 3-21G
 ****
 35  36  37  38  39  40  41  42  43  44  45 0
 3-21G
 ****


