%nproc=1
%NoSave
%Mem=1900MB
#P OB98/GEN NMR

erre ene a

0 1
  C      860.643    -421.068     -58.007
  O      861.965    -421.524     -58.204
  H      860.263    -421.488     -57.070
  H      859.995    -421.396     -58.824
  H      860.622    -419.978     -57.933
  P      862.742    -421.048     -59.524
  C      863.766    -418.984     -58.353
  O      862.902    -419.456     -59.382
  C      864.891    -418.151     -58.954
  O      864.364    -416.977     -59.597
  C      865.917    -417.665     -57.921
  O      866.849    -418.699     -57.629
  C      866.532    -416.503     -58.691
  O      867.450    -417.004     -59.679
  C      865.298    -415.884     -59.363
  N      865.272    -410.983     -58.059
  C      866.161    -411.683     -58.853
  N      867.216    -410.989     -59.326
  N      866.038    -412.958     -59.131
  C      864.972    -413.535     -58.531
  C      864.029    -412.955     -57.722
  C      864.144    -411.532     -57.459
  O      863.364    -410.858     -56.778
  N      863.126    -413.871     -57.241
  C      863.501    -415.002     -57.801
  N      864.623    -414.853     -58.583
  O      862.159    -421.484     -60.834
  O      864.234    -421.592     -59.318
  H      866.945    -417.618     -60.241
  H      864.345    -422.473     -59.727
  H      865.429    -410.009     -57.867
  H      862.996    -415.955     -57.677
  H      865.536    -415.444     -60.338
  H      867.093    -415.823     -58.047
  H      867.511    -410.115     -58.915
  H      865.433    -417.272     -57.027
  H      867.911    -411.502     -59.864
  H      865.375    -418.759     -59.735
  H      864.166    -419.857     -57.834
  H      863.197    -418.377     -57.640
  P      867.661    -418.699     -56.242
  C      865.910    -420.284     -55.185
  O      866.563    -419.017     -55.121
  O      868.468    -417.468     -55.990
  O      868.520    -420.046     -56.280
  H      869.403    -419.936     -56.710
  H      865.207    -420.364     -54.383
  H      866.637    -421.065     -55.101
  H      865.397    -420.374     -56.120

 6  7  8  9  10  11  12  13  14  15  26  29  33  34 0
 6-311+G(2d,p)
 ****
 36  38  39  40  41 0
 6-311+G(2d,p)
 ****
 1  2  3  4  5  16  17  18  19  20  21  22  23  24  25 0
 3-21G
 ****
 27  28  30  31  32  35  37  42  43  44  45  46  47 0
 3-21G
 ****
 48  49 0
 3-21G
 ****


