%nproc=1
%NoSave
%Mem=1900MB
#P OB98/GEN NMR

erre ene a

0 1
  C     -387.105      39.135    -102.300
  O     -388.072      38.212    -101.807
  P     -387.741      37.401    -100.465
  C     -388.679      35.010    -101.107
  O     -388.750      36.173    -100.310
  C     -390.104      34.539    -101.442
  O     -390.681      35.376    -102.465
  C     -390.156      33.104    -101.957
  O     -390.235      32.164    -100.903
  C     -391.390      33.133    -102.837
  O     -392.582      33.068    -102.034
  C     -391.258      34.526    -103.498
  N     -390.436      34.643    -104.721
  C     -390.889      34.084    -105.914
  O     -391.949      33.477    -106.035
  N     -390.075      34.254    -107.006
  C     -388.969      35.047    -107.068
  O     -388.311      35.209    -108.089
  C     -388.618      35.736    -105.823
  C     -389.343      35.499    -104.728
  O     -388.179      38.402     -99.299
  O     -386.310      36.980    -100.335
  H     -393.339      33.205    -102.631
  H     -387.400      38.676     -98.776
  H     -390.350      33.793    -107.860
  H     -387.775      36.415    -105.841
  H     -389.091      36.003    -103.796
  H     -392.247      34.933    -103.742
  H     -391.424      32.269    -103.500
  H     -389.292      32.898    -102.597
  H     -390.721      34.634    -100.540
  H     -388.134      34.219    -100.589
  H     -388.126      35.229    -102.026
  P     -389.130      31.010    -100.779
  C     -390.653      28.961    -100.529
  O     -389.798      29.869     -99.865
  O     -387.767      31.450    -100.369
  O     -389.131      30.332    -102.232
  H     -388.415      30.707    -102.792
  H     -390.910      28.152     -99.838
  H     -390.152      28.531    -101.404
  H     -391.571      29.469    -100.839
  H     -387.472      39.592    -103.195
  H     -386.193      38.617    -102.512
  H     -386.924      39.889    -101.563

 3  4  5  6  7  8  9  10  11  12  13  23  28  29  30  31  32 0
 6-311+G(2d,p)
 ****
 33  34 0
 6-311+G(2d,p)
 ****
 1  2  14  15  16  17  18  19  20  21  22  24  25  26  27 0
 3-21G
 ****
 35  36  37  38  39  40  41  42  43  44  45 0
 3-21G
 ****


