%nproc=1
%NoSave
%Mem=1900MB
#P OB98/GEN NMR

erre ene a

0 1
  C      401.577    -425.684     644.125
  O      402.267    -426.273     645.214
  P      403.321    -427.439     644.888
  C      401.685    -429.378     644.267
  O      402.598    -428.831     645.208
  C      401.642    -430.900     644.413
  O      402.856    -431.494     643.911
  C      401.530    -431.369     645.857
  O      400.203    -431.257     646.346
  C      402.017    -432.806     645.754
  O      400.957    -433.679     645.335
  C      403.102    -432.695     644.667
  N      404.455    -432.725     645.211
  C      404.894    -433.958     645.688
  O      404.189    -434.969     645.673
  N      406.156    -433.983     646.208
  C      406.985    -432.914     646.353
  O      408.091    -432.984     646.886
  C      406.457    -431.624     645.865
  C      405.238    -431.589     645.330
  O      404.413    -427.297     646.043
  O      403.930    -427.361     643.529
  H      401.364    -434.544     645.140
  H      405.301    -427.512     645.691
  H      406.504    -434.872     646.534
  H      407.089    -430.752     645.971
  H      404.823    -430.651     644.974
  H      403.004    -433.524     643.949
  H      402.385    -433.187     646.715
  H      402.222    -430.799     646.496
  H      400.801    -431.283     643.823
  H      402.009    -429.113     643.255
  H      400.696    -428.946     644.436
  P      399.865    -429.979     647.261
  C      400.487    -430.807     649.660
  O      399.482    -430.591     648.695
  O      398.468    -429.510     646.621
  O      400.938    -428.944     647.239
  H      397.948    -430.266     646.280
  H      401.263    -430.034     649.616
  H      400.940    -431.784     649.496
  H      400.033    -430.786     650.650
  H      400.913    -424.928     644.490
  H      401.014    -426.435     643.611
  H      402.283    -425.244     643.452

 3  4  5  6  7  8  9  10  11  12  13  23  28  29  30  31  32 0
 6-311+G(2d,p)
 ****
 33  34 0
 6-311+G(2d,p)
 ****
 1  2  14  15  16  17  18  19  20  21  22  24  25  26 0
 3-21G
 ****
 27  35  36  37  38  39  40  41  42  43  44  45 0
 3-21G
 ****


