%nproc=1
%NoSave
%Mem=1900MB
#P OB98/GEN NMR

erre ene a

0 1
  C      177.678    -671.205    -464.402
  O      178.377    -672.120    -463.592
  P      177.650    -673.452    -463.044
  C      177.991    -675.087    -465.018
  O      178.437    -674.675    -463.717
  C      179.160    -675.592    -465.849
  O      180.104    -674.552    -466.111
  C      179.950    -676.715    -465.187
  O      179.258    -677.949    -465.267
  C      181.265    -676.660    -465.982
  O      181.135    -677.382    -467.213
  C      181.411    -675.138    -466.255
  N      182.378    -674.531    -465.363
  C      183.731    -674.684    -465.717
  O      184.025    -675.357    -466.719
  N      184.702    -674.153    -464.919
  C      184.364    -673.508    -463.828
  N      185.360    -673.005    -463.069
  C      182.953    -673.335    -463.393
  C      182.031    -673.871    -464.202
  O      176.171    -673.462    -463.189
  O      178.149    -673.522    -461.504
  H      180.929    -678.312    -466.970
  H      177.674    -672.832    -460.950
  H      182.726    -672.822    -462.481
  H      180.980    -673.800    -463.968
  H      181.717    -674.977    -467.299
  H      182.090    -677.098    -465.429
  H      180.143    -676.450    -464.146
  H      178.754    -675.948    -466.813
  H      186.320    -673.159    -463.385
  H      177.552    -674.216    -465.512
  H      185.202    -672.509    -462.191
  H      177.205    -675.846    -464.908
  P      179.481    -679.066    -464.152
  C      177.576    -678.527    -462.509
  O      178.034    -679.402    -463.506
  O      180.575    -678.789    -463.171
  O      179.806    -680.376    -465.007
  H      180.576    -680.854    -464.583
  H      176.493    -678.662    -462.405
  H      177.799    -677.487    -462.782
  H      178.057    -678.760    -461.566
  H      178.324    -670.393    -464.663
  H      176.831    -670.829    -463.867
  H      177.347    -671.697    -465.293

 3  4  5  6  7  8  9  10  11  12  13  23  27  28  29  30  32 0
 6-311+G(2d,p)
 ****
 34  35 0
 6-311+G(2d,p)
 ****
 1  2  14  15  16  17  18  19  20  21  22  24  25  26 0
 3-21G
 ****
 31  33  36  37  38  39  40  41  42  43  44  45  46 0
 3-21G
 ****


