%nproc=1
%NoSave
%Mem=1900MB
#P OB98/GEN NMR

erre ene a

0 1
  C      184.654    -203.493     -35.306
  O      183.418    -203.170     -34.700
  H      184.475    -203.951     -36.281
  H      185.226    -202.572     -35.450
  H      185.232    -204.171     -34.673
  P      182.546    -204.385     -34.122
  C      184.231    -204.657     -32.167
  O      183.548    -205.283     -33.243
  C      184.395    -205.630     -31.001
  O      185.262    -206.720     -31.425
  C      185.011    -205.005     -29.739
  O      184.360    -205.563     -28.593
  C      186.448    -205.492     -29.776
  O      187.048    -205.536     -28.485
  C      186.281    -206.864     -30.422
  N      189.228    -210.949     -31.114
  C      187.936    -210.821     -30.749
  N      187.208    -209.691     -30.641
  C      187.930    -208.623     -31.021
  C      189.253    -208.597     -31.424
  C      189.921    -209.834     -31.447
  N      191.256    -209.968     -31.751
  N      189.654    -207.300     -31.678
  C      188.599    -206.556     -31.408
  N      187.533    -207.311     -31.006
  O      182.291    -205.277     -35.428
  O      181.271    -204.000     -33.451
  H      187.149    -204.623     -28.153
  H      181.490    -204.964     -35.886
  H      187.419    -211.744     -30.500
  H      188.562    -205.477     -31.457
  H      185.958    -207.631     -29.707
  H      187.044    -204.827     -30.411
  H      184.942    -203.911     -29.707
  H      183.417    -206.070     -30.775
  H      183.649    -203.793     -31.828
  H      191.674    -210.878     -31.636
  H      191.810    -209.136     -31.893
  H      185.209    -204.309     -32.513
  P      183.467    -204.576     -27.699
  C      181.100    -205.485     -28.289
  O      182.033    -204.416     -28.394
  O      184.152    -203.149     -27.931
  O      183.431    -204.940     -26.250
  H      184.076    -202.603     -27.129
  H      180.198    -205.223     -28.802
  H      180.883    -205.669     -27.258
  H      181.517    -206.367     -28.728

 6  7  8  9  10  11  12  13  14  15  25  28  32  33  34  35 0
 6-311+G(2d,p)
 ****
 36  39  40 0
 6-311+G(2d,p)
 ****
 1  2  3  4  5  16  17  18  19  20  21  22  23  24 0
 3-21G
 ****
 26  27  29  30  31  37  38  41  42  43  44  45  46  47 0
 3-21G
 ****
 48 0
 3-21G
 ****


