%nproc=1
%NoSave
%Mem=1900MB
#P OB98/GEN NMR

erre ene a

0 1
  C      -71.636      40.565    -237.347
  O      -70.357      40.584    -237.952
  P      -69.117      41.260    -237.199
  C      -67.119      39.660    -237.419
  O      -68.197      40.093    -236.596
  C      -66.646      38.273    -236.993
  O      -67.590      37.258    -237.406
  C      -65.320      37.851    -237.609
  O      -64.225      38.539    -237.035
  C      -65.345      36.349    -237.356
  O      -64.945      36.054    -236.010
  C      -66.842      36.027    -237.555
  N      -67.108      35.393    -238.837
  C      -67.071      33.995    -238.853
  O      -66.748      33.369    -237.842
  N      -67.395      33.345    -240.017
  C      -67.609      34.027    -241.099
  N      -67.983      33.332    -242.205
  C      -67.496      35.499    -241.159
  C      -67.268      36.112    -239.999
  O      -69.472      42.340    -236.231
  O      -68.214      41.842    -238.388
  H      -67.999      42.776    -238.191
  H      -64.855      35.082    -235.953
  H      -67.616      36.016    -242.100
  H      -67.190      37.193    -239.944
  H      -67.195      35.365    -236.756
  H      -64.670      35.803    -238.022
  H      -65.343      38.038    -238.692
  H      -66.583      38.256    -235.897
  H      -68.069      32.328    -242.120
  H      -66.297      40.375    -237.324
  H      -68.477      33.768    -242.982
  H      -67.445      39.650    -238.466
  P      -63.566      39.712    -237.909
  C      -64.209      41.660    -236.329
  O      -64.375      41.057    -237.596
  O      -63.999      39.344    -239.407
  O      -62.080      39.821    -237.784
  H      -63.277      39.573    -240.022
  H      -64.527      42.704    -236.394
  H      -63.167      41.626    -236.004
  H      -64.838      41.146    -235.596
  H      -72.331      40.075    -237.997
  H      -71.961      41.569    -237.169
  H      -71.583      40.037    -236.418

 3  4  5  6  7  8  9  10  11  12  13  24  27  28  29  30  32 0
 6-311+G(2d,p)
 ****
 34  35 0
 6-311+G(2d,p)
 ****
 1  2  14  15  16  17  18  19  20  21  22  23  25  26 0
 3-21G
 ****
 31  33  36  37  38  39  40  41  42  43  44  45  46 0
 3-21G
 ****


