%nproc=1
%NoSave
%Mem=1900MB
#P OB98/GEN NMR

erre ene a

0 1
  C     -404.442     505.345     -69.059
  O     -403.244     504.571     -68.948
  P     -403.403     502.983     -69.166
  C     -404.054     502.940     -71.680
  O     -404.480     502.747     -70.339
  C     -404.761     501.963     -72.617
  O     -406.187     502.181     -72.664
  C     -404.278     502.046     -74.058
  O     -403.050     501.350     -74.204
  C     -405.436     501.403     -74.813
  O     -405.314     499.963     -74.823
  C     -406.659     501.835     -73.997
  N     -410.746     503.186     -76.686
  C     -410.214     501.925     -76.444
  N     -410.882     500.883     -76.980
  N     -409.133     501.720     -75.744
  C     -408.571     502.860     -75.277
  C     -409.013     504.156     -75.432
  C     -410.214     504.369     -76.206
  O     -410.730     505.458     -76.431
  N     -408.207     505.047     -74.758
  C     -407.210     504.299     -74.311
  N     -407.410     502.954     -74.541
  O     -404.171     502.504     -67.834
  O     -402.104     502.274     -69.329
  H     -404.544     499.716     -75.372
  H     -403.563     501.984     -67.273
  H     -411.576     503.284     -77.238
  H     -406.339     504.667     -73.793
  H     -407.377     501.015     -73.875
  H     -405.454     501.712     -75.865
  H     -411.728     500.965     -77.521
  H     -404.173     503.097     -74.357
  H     -410.523     499.944     -76.797
  H     -404.588     500.955     -72.223
  H     -402.966     502.802     -71.751
  H     -404.258     503.984     -71.963
  P     -401.983     501.912     -75.257
  C     -400.447     503.228     -73.619
  O     -401.406     503.278     -74.668
  O     -402.902     502.369     -76.495
  O     -400.956     500.916     -75.691
  H     -402.491     502.078     -77.335
  H     -399.799     504.107     -73.692
  H     -399.835     502.325     -73.684
  H     -400.970     503.257     -72.667
  H     -404.216     506.378     -68.896
  H     -405.149     505.015     -68.327
  H     -404.858     505.221     -70.037

 3  4  5  6  7  8  9  10  11  12  23  26  30  31 0
 6-311+G(2d,p)
 ****
 33  35  36  37  38 0
 6-311+G(2d,p)
 ****
 1  2  13  14  15  16  17  18  19  20  21  22  24  25 0
 3-21G
 ****
 27  28  29  32  34  39  40  41  42  43  44  45  46  47  48  49 0
 3-21G
 ****


