%nproc=1
%NoSave
%Mem=1900MB
#P OB98/GEN NMR

erre ene a

0 1
  C     -279.353     688.754    -616.065
  O     -278.240     688.549    -615.202
  P     -277.046     687.584    -615.713
  C     -275.258     689.491    -615.934
  O     -276.025     688.480    -616.580
  C     -274.545     690.370    -616.965
  O     -275.455     690.845    -617.982
  C     -273.933     691.640    -616.355
  O     -272.656     691.359    -615.772
  C     -273.750     692.506    -617.616
  O     -272.601     692.090    -618.328
  C     -275.024     692.160    -618.413
  N     -277.464     696.226    -620.359
  C     -276.366     695.550    -620.775
  N     -275.763     694.484    -620.197
  C     -276.425     694.129    -619.082
  C     -277.549     694.731    -618.522
  C     -278.075     695.830    -619.217
  N     -279.181     696.526    -618.779
  N     -277.920     694.086    -617.360
  C     -277.055     693.111    -617.211
  N     -276.124     693.100    -618.225
  O     -277.769     686.666    -616.799
  O     -276.419     686.771    -614.630
  H     -272.652     692.470    -619.220
  H     -277.375     685.786    -616.804
  H     -275.912     695.903    -621.712
  H     -277.071     692.384    -616.403
  H     -274.831     692.101    -619.495
  H     -273.638     693.564    -617.370
  H     -274.630     692.122    -615.659
  H     -273.754     689.772    -617.448
  H     -274.538     689.020    -615.262
  H     -279.516     697.275    -619.354
  H     -279.661     696.218    -617.950
  H     -275.931     690.083    -615.297
  P     -272.659     690.938    -614.236
  C     -271.609     688.587    -614.695
  O     -272.720     689.333    -614.222
  O     -274.099     691.396    -613.699
  O     -271.547     691.539    -613.432
  H     -274.062     691.618    -612.760
  H     -271.698     687.540    -614.355
  H     -270.669     689.012    -614.320
  H     -271.589     688.603    -615.803
  H     -280.054     689.410    -615.593
  H     -279.824     687.815    -616.269
  H     -279.017     689.191    -616.982

 3  4  5  6  7  8  9  10  11  12  22  25  29  30  31  32 0
 6-311+G(2d,p)
 ****
 33  36  37 0
 6-311+G(2d,p)
 ****
 1  2  13  14  15  16  17  18  19  20  21  23  24  26 0
 3-21G
 ****
 27  28  34  35  38  39  40  41  42  43  44  45  46  47  48 0
 3-21G
 ****


