%nproc=1
%NoSave
%Mem=1900MB
#P OB98/GEN NMR

erre ene a

0 1
  C     -206.828      61.668      19.525
  O     -207.137      62.488      20.639
  H     -205.743      61.644      19.395
  H     -207.291      62.073      18.623
  H     -207.185      60.646      19.702
  P     -208.690      62.615      21.022
  C     -209.255      64.379      19.182
  O     -209.443      63.058      19.674
  C     -210.602      64.985      18.774
  O     -210.417      66.420      18.560
  C     -211.170      64.407      17.467
  O     -212.609      64.466      17.525
  C     -210.675      65.414      16.438
  O     -211.385      65.286      15.234
  C     -210.884      66.705      17.220
  N     -210.608      71.795      17.074
  C     -211.381      70.953      17.797
  N     -211.384      69.607      17.782
  C     -210.454      69.133      16.934
  C     -209.594      69.870      16.132
  C     -209.697      71.270      16.217
  N     -208.930      72.126      15.471
  N     -208.800      69.023      15.375
  C     -209.171      67.805      15.717
  N     -210.166      67.827      16.658
  O     -208.735      63.935      21.932
  O     -209.283      61.439      21.717
  H     -211.148      65.998      14.605
  H     -208.647      63.695      22.873
  H     -212.088      71.429      18.471
  H     -208.765      66.885      15.320
  H     -211.946      66.986      17.286
  H     -209.611      65.253      16.214
  H     -210.850      63.379      17.269
  H     -211.316      64.879      19.599
  H     -208.584      64.336      18.315
  H     -208.798      64.996      19.964
  H     -209.086      73.119      15.569
  H     -208.275      71.748      14.803
  P     -213.435      63.102      17.747
  C     -213.386      61.967      15.396
  O     -212.920      61.966      16.739
  O     -214.865      63.483      17.135
  O     -213.578      62.667      19.170
  H     -215.572      63.184      17.742
  H     -212.947      61.148      14.865
  H     -213.111      62.887      14.924
  H     -214.451      61.867      15.388

 6  7  8  9  10  11  12  13  14  15  25  28  32  33  34  35 0
 6-311+G(2d,p)
 ****
 36  37  40 0
 6-311+G(2d,p)
 ****
 1  2  3  4  5  16  17  18  19  20  21  22  23  24 0
 3-21G
 ****
 26  27  29  30  31  38  39 41  42  43  44  45  46  47  48 0
 3-21G
 ****


