%nproc=1
%NoSave
%Mem=1900MB
#P OB98/GEN NMR

erre ene a

0 1
  C      -46.057     267.029     273.676
  O      -45.522     266.173     272.683
  H      -45.644     266.733     274.645
  H      -47.142     266.926     273.713
  H      -45.785     268.069     273.481
  P      -45.848     266.474     271.144
  C      -44.082     268.265     270.555
  O      -44.469     266.900     270.435
  C      -42.589     268.433     270.243
  O      -41.823     268.074     271.423
  C      -42.099     267.560     269.081
  O      -41.126     268.284     268.324
  C      -41.437     266.384     269.780
  O      -40.433     265.769     268.973
  C      -40.888     267.044     271.044
  N      -37.732     263.668     273.109
  C      -37.535     264.548     272.062
  N      -36.327     264.512     271.458
  N      -38.446     265.382     271.636
  C      -39.600     265.331     272.350
  C      -39.918     264.509     273.408
  C      -38.909     263.565     273.853
  O      -39.029     262.754     274.764
  N      -41.200     264.733     273.853
  C      -41.655     265.693     273.064
  N      -40.730     266.075     272.130
  O      -46.988     267.421     270.912
  O      -46.148     265.034     270.514
  H      -40.005     265.079     269.526
  H      -47.102     264.908     270.364
  H      -37.002     263.037     273.387
  H      -42.643     266.134     273.124
  H      -39.905     267.504     270.887
  H      -42.192     265.624     270.029
  H      -35.571     263.907     271.744
  H      -42.913     267.243     268.430
  H      -36.146     265.163     270.702
  H      -42.393     269.497     270.044
  H      -44.283     268.588     271.586
  H      -44.680     268.871     269.868
  P      -41.281     268.367     266.728
  C      -42.342     270.694     266.473
  O      -41.175     269.906     266.275
  O      -42.444     267.623     266.160
  O      -39.893     267.751     266.202
  H      -40.058     267.259     265.373
  H      -42.158     271.694     266.138
  H      -42.592     270.706     267.513
  H      -43.154     270.275     265.916

 6  7  8  9  10  11  12  13  14  15  26  29  33  34 0
 6-311+G(2d,p)
 ****
 36  38  39  40  41 0
 6-311+G(2d,p)
 ****
 1  2  3  4  5  16  17  18  19  20  21  22  23  24  25 0
 3-21G
 ****
 27  28  30  31  32  35  37  42  43  44  45  46  47 0
 3-21G
 ****
 48  49 0
 3-21G
 ****


