%nproc=1
%NoSave
%Mem=1900MB
#P OB98/GEN NMR

erre ene a

0 1
  C      -18.069    -137.566      78.261
  O      -18.548    -136.252      78.449
  H      -18.891    -138.265      78.436
  H      -17.265    -137.788      78.968
  H      -17.711    -137.698      77.236
  P      -17.519    -135.029      78.313
  C      -18.361    -133.588      80.282
  O      -17.321    -134.422      79.786
  C      -18.235    -133.434      81.805
  O      -18.317    -134.758      82.389
  C      -16.899    -132.802      82.224
  O      -17.062    -131.675      83.082
  C      -16.102    -133.991      82.745
  O      -15.107    -133.658      83.691
  C      -17.187    -134.941      83.262
  N      -16.780    -136.346      83.289
  C      -16.084    -136.787      84.412
  O      -15.796    -136.094      85.384
  N      -15.712    -138.110      84.394
  C      -15.949    -138.998      83.389
  O      -15.593    -140.172      83.434
  C      -16.664    -138.465      82.219
  C      -17.039    -137.184      82.221
  O      -17.851    -134.022      77.265
  O      -16.111    -135.737      78.024
  H      -15.568    -133.305      84.483
  H      -15.880    -135.626      77.083
  H      -15.220    -138.446      85.209
  H      -16.856    -139.142      81.396
  H      -17.569    -136.756      81.374
  H      -17.489    -134.666      84.275
  H      -15.590    -134.463      81.897
  H      -16.380    -132.381      81.354
  H      -19.091    -132.856      82.171
  H      -19.317    -134.053      80.026
  H      -18.303    -132.604      79.804
  P      -17.024    -130.151      82.614
  C      -14.414    -129.970      82.339
  O      -15.703    -129.917      81.744
  O      -17.322    -129.137      83.668
  O      -18.200    -130.061      81.511
  H      -18.563    -129.156      81.570
  H      -13.669    -129.788      81.593
  H      -14.259    -130.937      82.769
  H      -14.343    -129.224      83.103

 6  7  8  9  10  11  12  13  14  15  16  26  31  32  33  34  35 0
 6-311+G(2d,p)
 ****
 36  37 0
 6-311+G(2d,p)
 ****
 1  2  3  4  5  17  18  19  20  21  22  23  24  25 0
 3-21G
 ****
 27  28  29  30  38  39  40  41  42  43  44  45 0
 3-21G
 ****


