%nproc=1
%NoSave
%Mem=1900MB
#P OB98/GEN NMR

erre ene a

0 1
  C      253.274      55.995     843.200
  O      252.253      55.132     843.677
  H      252.866      56.588     842.367
  H      254.118      55.403     842.820
  H      253.614      56.670     843.988
  P      252.584      54.301     845.013
  C      253.775      52.118     844.159
  O      252.572      52.743     844.608
  C      253.801      50.659     844.613
  O      253.903      50.575     846.064
  C      252.531      49.895     844.283
  O      252.401      49.611     842.901
  C      252.742      48.649     845.146
  O      253.649      47.729     844.520
  C      253.368      49.265     846.431
  N      252.413      49.371     847.527
  C      252.436      48.307     848.457
  O      253.232      47.391     848.313
  N      251.528      48.332     849.486
  C      250.707      49.322     849.592
  N      249.816      49.285     850.648
  C      250.668      50.461     848.667
  C      251.547      50.423     847.666
  O      251.231      54.453     845.855
  O      253.821      54.726     845.739
  H      253.749      46.980     845.144
  H      250.437      54.192     845.367
  H      249.963      51.284     848.820
  H      251.576      51.213     846.933
  H      254.223      48.655     846.755
  H      251.807      48.101     845.311
  H      251.658      50.416     844.669
  H      254.691      50.185     844.175
  H      249.870      48.475     851.260
  H      254.662      52.660     844.508
  H      249.119      49.984     850.823
  H      253.772      52.164     843.050
  P      251.407      50.475     841.989
  C      249.317      49.016     842.413
  O      250.286      49.458     841.457
  O      252.075      51.299     840.917
  O      250.578      51.349     843.057
  H      250.075      50.827     843.719
  H      248.629      48.347     841.940
  H      248.785      49.861     842.798
  H      249.812      48.510     843.215

 6  7  8  9  10  11  12  13  14  15  16  26  30  31  32  33  35 0
 6-311+G(2d,p)
 ****
 37  38 0
 6-311+G(2d,p)
 ****
 1  2  3  4  5  17  18  19  20  21  22  23  24  25 0
 3-21G
 ****
 27  28  29  34  36  39  40  41  42  43  44  45  46 0
 3-21G
 ****


