%nproc=1
%NoSave
%Mem=1900MB
#P OB98/GEN NMR

erre ene a

0 1
  C       15.145      -5.600      51.410
  O       13.820      -6.035      51.181
  H       15.802      -6.474      51.426
  H       15.222      -5.089      52.374
  H       15.471      -4.933      50.608
  P       12.646      -4.946      51.192
  C       11.489      -6.126      53.182
  O       11.370      -5.665      51.841
  C       10.851      -7.505      53.335
  O        9.422      -7.417      53.164
  C       11.329      -8.529      52.313
  O       12.626      -8.985      52.633
  C       10.225      -9.567      52.422
  O       10.406     -10.392      53.583
  C        8.976      -8.665      52.583
  N        8.264      -8.428      51.332
  C        7.129      -9.217      51.111
  O        6.790     -10.061      51.939
  N        6.423      -9.035      49.947
  C        6.786      -8.123      49.103
  N        6.042      -7.992      47.972
  C        7.956      -7.248      49.313
  C        8.647      -7.461      50.430
  O       12.372      -4.255      49.892
  O       13.093      -3.910      52.327
  H        9.606     -10.951      53.647
  H       13.582      -3.163      51.935
  H        8.217      -6.494      48.586
  H        9.522      -6.860      50.662
  H        8.271      -9.111      53.296
  H       10.194     -10.233      51.559
  H       11.300      -8.101      51.305
  H       11.039      -7.853      54.358
  H        5.236      -8.602      47.881
  H       10.973      -5.400      53.819
  H        6.131      -7.218      47.331
  H       12.541      -6.163      53.486
  P       13.658      -9.449      51.497
  C       12.594     -11.760      51.133
  O       13.730     -11.049      51.600
  O       14.979      -8.757      51.519
  O       12.846      -9.227      50.137
  H       12.831      -8.267      49.897
  H       12.757     -12.811      51.252
  H       12.435     -11.538      50.098
  H       11.733     -11.467      51.697

 6  7  8  9  10  11  12  13  14  15  16  26  30  31  32  33  35 0
 6-311+G(2d,p)
 ****
 37  38 0
 6-311+G(2d,p)
 ****
 1  2  3  4  5  17  18  19  20  21  22  23  24  25 0
 3-21G
 ****
 27  28  29  34  36  39  40  41  42  43  44  45  46 0
 3-21G
 ****


