%nproc=1
%NoSave
%Mem=1900MB
#P OB98/GEN NMR

erre ene a

0 1
  C     -412.960     657.053     375.262
  O     -412.110     656.841     374.154
  H     -413.994     657.071     374.911
  H     -412.729     658.018     375.722
  H     -412.854     656.259     376.002
  P     -410.582     656.452     374.414
  C     -411.040     653.937     374.064
  O     -410.306     655.078     373.641
  C     -410.481     652.658     373.421
  O     -411.099     651.504     374.050
  C     -410.817     652.589     371.927
  O     -409.856     651.838     371.194
  C     -412.142     651.837     371.915
  O     -412.414     651.199     370.667
  C     -411.947     650.863     373.084
  N     -416.165     648.032     372.730
  C     -415.221     648.309     371.762
  N     -415.430     647.756     370.540
  N     -414.183     649.078     371.959
  C     -414.149     649.612     373.211
  C     -415.034     649.432     374.245
  C     -416.163     648.546     374.015
  O     -417.038     648.285     374.832
  N     -414.667     650.147     375.355
  C     -413.562     650.773     374.993
  N     -413.190     650.460     373.707
  O     -410.566     655.995     375.952
  O     -409.584     657.542     374.160
  H     -412.317     651.876     369.970
  H     -409.668     656.066     376.321
  H     -416.935     647.412     372.531
  H     -412.988     651.440     375.621
  H     -411.435     649.953     372.743
  H     -412.951     652.555     372.099
  H     -416.309     647.334     370.294
  H     -410.924     653.569     371.475
  H     -414.939     648.194     369.756
  H     -409.402     652.582     373.610
  H     -412.077     654.095     373.762
  H     -411.027     653.858     375.153
  P     -408.674     652.623     370.449
  C     -407.225     653.753     372.361
  O     -407.397     652.722     371.413
  O     -409.207     654.127     370.373
  O     -408.320     652.085     369.103
  H     -409.342     654.390     369.445
  H     -406.302     653.607     372.883
  H     -408.036     653.735     373.059
  H     -407.206     654.698     371.860

 6  7  8  9  10  11  12  13  14  15  26  29  33  34 0
 6-311+G(2d,p)
 ****
 36  38  39  40  41 0
 6-311+G(2d,p)
 ****
 1  2  3  4  5  16  17  18  19  20  21  22  23  24  25 0
 3-21G
 ****
 27  28  30  31  32  35  37  42  43  44  45  46  47 0
 3-21G
 ****
 48  49 0
 3-21G
 ****


