%nproc=1
%NoSave
%Mem=1900MB
#P OB98/GEN NMR

erre ene a

0 1
  C     1318.661    -769.022     425.372
  O     1317.837    -770.127     425.627
  H     1318.255    -768.149     425.903
  H     1318.690    -768.791     424.318
  H     1319.674    -769.197     425.734
  P     1318.176    -771.522     424.904
  C     1318.200    -772.752     427.180
  O     1318.937    -772.448     425.993
  C     1319.114    -772.530     428.412
  O     1319.583    -771.149     428.384
  C     1318.346    -772.785     429.730
  O     1319.014    -773.675     430.606
  C     1318.126    -771.367     430.267
  O     1317.983    -771.265     431.660
  C     1319.300    -770.562     429.666
  N     1319.054    -769.140     429.533
  C     1319.672    -768.291     430.451
  O     1320.401    -768.656     431.375
  N     1319.396    -766.957     430.296
  C     1318.576    -766.395     429.355
  O     1318.374    -765.199     429.284
  C     1317.972    -767.351     428.424
  C     1318.206    -768.661     428.563
  O     1318.869    -771.407     423.580
  O     1316.752    -772.254     424.766
  H     1317.551    -772.063     431.960
  H     1316.445    -772.157     423.846
  H     1319.836    -766.342     430.968
  H     1317.311    -766.935     427.643
  H     1317.752    -769.397     427.891
  H     1320.194    -770.691     430.289
  H     1317.197    -770.989     429.814
  H     1317.374    -773.249     429.557
  H     1319.988    -773.191     428.335
  H     1317.906    -773.789     427.116
  H     1317.322    -772.114     427.266
  P     1319.348    -775.213     430.221
  C     1321.961    -775.220     430.071
  O     1320.703    -775.222     429.404
  O     1318.191    -776.006     429.686
  O     1319.764    -775.853     431.661
  H     1319.441    -776.801     431.623
  H     1322.749    -775.227     429.347
  H     1322.038    -776.089     430.690
  H     1322.042    -774.342     430.677

 6  7  8  9  10  11  12  13  14  15  16  26  31  32  33  34  35 0
 6-311+G(2d,p)
 ****
 36  37 0
 6-311+G(2d,p)
 ****
 1  2  3  4  5  17  18  19  20  21  22  23  24  25 0
 3-21G
 ****
 27  28  29  30  38  39  40  41  42  43  44  45 0
 3-21G
 ****


