%nproc=1
%NoSave
%Mem=1900MB
#P OB98/GEN NMR

erre ene a

0 1
  C     -220.682     -21.532    -326.006
  O     -219.537     -22.049    -326.652
  H     -221.178     -20.799    -326.647
  H     -221.377     -22.352    -325.808
  H     -220.403     -21.068    -325.056
  P     -218.402     -20.995    -327.068
  C     -216.934     -22.203    -325.304
  O     -217.331     -20.959    -325.869
  C     -215.643     -22.024    -324.509
  O     -214.569     -21.736    -325.442
  C     -215.684     -20.895    -323.464
  O     -215.398     -21.413    -322.163
  C     -214.552     -19.963    -323.870
  O     -213.816     -19.455    -322.758
  C     -213.683     -20.832    -324.771
  N     -209.090     -18.912    -325.870
  C     -209.461     -19.959    -325.100
  N     -210.691     -20.486    -324.933
  C     -211.593     -19.831    -325.687
  C     -211.364     -18.764    -326.535
  C     -210.045     -18.286    -326.601
  N     -209.678     -17.184    -327.342
  N     -212.540     -18.350    -327.133
  C     -213.471     -19.131    -326.620
  N     -212.949     -20.031    -325.726
  O     -219.150     -19.583    -326.943
  O     -217.822     -21.194    -328.427
  H     -213.411     -20.223    -322.315
  H     -218.981     -19.052    -327.743
  H     -208.662     -20.435    -324.539
  H     -214.532     -19.062    -326.821
  H     -212.961     -21.429    -324.196
  H     -214.971     -19.114    -324.422
  H     -216.644     -20.364    -323.452
  H     -215.403     -22.978    -324.025
  H     -216.761     -22.931    -326.106
  H     -208.736     -16.840    -327.237
  H     -210.400     -16.648    -327.798
  H     -217.738     -22.575    -324.662
  P     -216.527     -21.197    -321.036
  C     -217.242     -23.689    -320.790
  O     -217.603     -22.377    -321.203
  O     -217.311     -19.905    -321.560
  O     -215.980     -21.001    -319.660
  H     -217.717     -19.430    -320.808
  H     -218.060     -24.356    -320.965
  H     -217.005     -23.682    -319.747
  H     -216.389     -24.016    -321.347

 6  7  8  9  10  11  12  13  14  15  25  28  32  33  34  35 0
 6-311+G(2d,p)
 ****
 36  39  40 0
 6-311+G(2d,p)
 ****
 1  2  3  4  5  16  17  18  19  20  21  22  23  24 0
 3-21G
 ****
 26  27  29  30  31  37  38  41  42  43  44  45  46  47  48 0
 3-21G
 ****


