%nproc=1
%NoSave
%Mem=1900MB
#P OB98/GEN NMR

erre ene a

0 1
  C       35.751     -78.818     -42.318
  O       36.415     -77.695     -41.765
  P       37.156     -76.694     -42.779
  C       39.659     -76.387     -42.144
  O       38.689     -77.161     -42.837
  C       39.738     -76.824     -40.685
  O       40.001     -78.238     -40.587
  C       40.852     -76.153     -39.891
  O       40.493     -74.855     -39.447
  C       40.982     -77.102     -38.711
  O       39.947     -76.830     -37.746
  C       40.752     -78.468     -39.369
  N       42.784     -82.733     -41.177
  C       41.470     -82.313     -41.177
  N       40.561     -83.179     -41.676
  N       41.079     -81.148     -40.731
  C       42.096     -80.389     -40.253
  C       43.438     -80.697     -40.203
  C       43.853     -81.993     -40.689
  O       44.993     -82.444     -40.668
  N       44.164     -79.671     -39.659
  C       43.270     -78.744     -39.381
  N       41.996     -79.150     -39.683
  O       37.221     -75.320     -41.960
  O       36.480     -76.531     -44.098
  H       40.253     -76.068     -37.215
  H       37.401     -74.578     -42.568
  H       43.034     -83.644     -41.527
  H       43.495     -77.778     -38.948
  H       40.154     -79.131     -38.738
  H       41.937     -77.002     -38.188
  H       40.790     -84.115     -41.977
  H       41.793     -76.144     -40.456
  H       39.582     -82.922     -41.630
  H       38.763     -76.628     -40.219
  H       39.383     -75.332     -42.197
  H       40.633     -76.513     -42.630
  P       41.695     -73.883     -39.010
  C       41.911     -73.426     -36.462
  O       42.092     -74.339     -37.527
  O       40.962     -72.477     -38.799
  O       42.812     -73.800     -39.996
  H       41.589     -71.743     -38.938
  H       41.972     -73.973     -35.516
  H       40.934     -72.940     -36.521
  H       42.701     -72.670     -36.483
  H       35.306     -79.392     -41.532
  H       36.456     -79.424     -42.847
  H       34.990     -78.486     -42.992

 3  4  5  6  7  8  9  10  11  12  23  26  30  31 0
 6-311+G(2d,p)
 ****
 33  35  36  37  38 0
 6-311+G(2d,p)
 ****
 1  2  13  14  15  16  17  18  19  20  21  22  24  25 0
 3-21G
 ****
 27  28  29  32  34  39  40  41  42  43  44  45  46  47  48  49 0
 3-21G
 ****


