%nproc=1
%NoSave
%Mem=1900MB
#P OB98/GEN NMR

erre ene a

0 1
  C       63.714    -174.326    -984.577
  O       63.236    -175.565    -984.079
  P       61.772    -176.047    -984.543
  C       62.284    -176.414    -987.075
  O       62.002    -177.014    -985.804
  C       62.425    -177.485    -988.150
  O       63.660    -178.202    -987.960
  C       61.335    -178.532    -988.158
  O       60.152    -178.078    -988.809
  C       61.984    -179.648    -988.956
  O       61.872    -179.378    -990.356
  C       63.473    -179.549    -988.497
  N       64.906    -184.311    -987.633
  C       64.624    -183.681    -988.834
  N       64.784    -184.400    -989.962
  N       64.234    -182.431    -988.912
  C       64.158    -181.811    -987.707
  C       64.413    -182.349    -986.456
  C       64.793    -183.748    -986.383
  O       64.993    -184.374    -985.348
  N       64.238    -181.406    -985.471
  C       63.928    -180.295    -986.132
  N       63.845    -180.505    -987.484
  O       61.163    -174.725    -985.213
  O       60.912    -176.571    -983.454
  H       62.489    -179.980    -990.815
  H       60.183    -174.737    -985.165
  H       65.224    -185.272    -987.641
  H       63.768    -179.336    -985.657
  H       64.159    -179.645    -989.334
  H       61.541    -180.638    -988.766
  H       65.212    -185.325    -989.967
  H       61.106    -178.882    -987.135
  H       64.632    -183.944    -990.837
  H       62.480    -176.968    -989.127
  H       63.221    -175.844    -987.001
  H       61.463    -175.718    -987.305
  P       58.743    -178.446    -988.121
  C       58.486    -176.029    -987.214
  O       57.947    -177.061    -988.013
  O       59.169    -178.795    -986.616
  O       58.028    -179.586    -988.782
  H       58.515    -179.414    -986.218
  H       59.579    -176.000    -987.263
  H       58.179    -176.176    -986.175
  H       58.094    -175.077    -987.560
  H       64.692    -174.138    -984.186
  H       63.053    -173.541    -984.275
  H       63.758    -174.364    -985.645

 3  4  5  6  7  8  9  10  11  12  23  26  30  31  33  0
 6-311+G(2d,p)
 ****
 35  36  37  38 0
 6-311+G(2d,p)
 ****
 1  2  13  14  15  16  17  18  19  20  21  22  24  25  27  28  29 0
 3-21G
 ****
 32  34  39  40  41  42  43  44  45  46  47  48  49 0
 3-21G
 ****


