%nproc=1
%NoSave
%Mem=1900MB
#P OB98/GEN NMR

erre ene a

0 1
  C       31.350    -277.563     214.881
  O       30.893    -277.784     216.223
  P       30.414    -276.599     217.195
  C       28.418    -275.172     216.395
  O       28.830    -276.377     217.018
  C       26.928    -275.195     216.029
  O       26.660    -276.274     215.082
  C       25.983    -275.398     217.231
  O       24.841    -274.566     216.996
  C       25.634    -276.874     217.113
  O       24.472    -277.245     217.832
  C       25.514    -276.993     215.589
  N       25.483    -278.356     215.064
  C       24.340    -279.125     215.315
  O       23.412    -278.694     215.999
  N       24.279    -280.394     214.788
  C       25.265    -280.859     214.087
  N       25.135    -282.118     213.591
  C       26.494    -280.096     213.820
  C       26.536    -278.861     214.328
  O       31.206    -275.341     217.046
  O       30.555    -277.179     218.680
  H       30.834    -276.460     219.284
  H       24.377    -278.213     217.770
  H       27.289    -280.515     213.224
  H       27.393    -278.222     214.150
  H       24.622    -276.453     215.254
  H       26.472    -277.466     217.504
  H       26.432    -275.121     218.191
  H       26.690    -274.256     215.511
  H       24.270    -282.613     213.788
  H       29.001    -275.039     215.474
  H       25.837    -282.575     213.028
  H       28.634    -274.327     217.062
  P       24.848    -273.043     217.507
  C       26.028    -271.667     215.634
  O       24.813    -272.097     216.211
  O       26.363    -272.868     218.003
  O       23.906    -272.715     218.620
  H       26.406    -272.167     218.675
  H       25.960    -271.770     214.545
  H       26.886    -272.248     215.984
  H       26.186    -270.613     215.879
  H       31.613    -278.499     214.435
  H       32.207    -276.922     214.897
  H       30.571    -277.102     214.310

 3  4  5  6  7  8  9  10  11  12  13  24  27  28  29  30  32 0
 6-311+G(2d,p)
 ****
 34  35 0
 6-311+G(2d,p)
 ****
 1  2  14  15  16  17  18  19  20  21  22  23  25  26 0
 3-21G
 ****
 31  33  36  37  38  39  40  41  42  43  44  45  46 0
 3-21G
 ****


