%nproc=1
%NoSave
%Mem=1900MB
#P OB98/GEN NMR

erre ene a

0 1
  C      -41.968     430.717    -249.049
  O      -42.597     430.501    -250.303
  P      -43.432     429.138    -250.485
  C      -42.451     427.235    -251.961
  O      -42.341     427.994    -250.765
  C      -41.573     427.836    -253.061
  O      -40.258     428.104    -252.549
  C      -41.371     426.925    -254.263
  O      -42.512     426.938    -255.095
  C      -40.133     427.551    -254.902
  O      -40.497     428.615    -255.793
  C      -39.354     428.085    -253.679
  N      -38.161     427.307    -253.390
  C      -37.003     427.699    -254.076
  O      -37.043     428.638    -254.883
  N      -35.840     426.994    -253.870
  C      -35.843     425.981    -253.050
  N      -34.660     425.327    -252.874
  C      -37.044     425.529    -252.330
  C      -38.159     426.219    -252.547
  O      -44.140     429.332    -251.905
  O      -44.408     428.851    -249.390
  H      -41.027     428.194    -256.505
  H      -44.965     428.808    -251.957
  H      -36.987     424.681    -251.658
  H      -39.087     425.953    -252.059
  H      -39.044     429.128    -253.852
  H      -39.575     426.819    -255.499
  H      -41.144     425.905    -253.936
  H      -42.018     428.794    -253.377
  H      -33.852     425.662    -253.388
  H      -43.494     427.234    -252.306
  H      -34.553     424.547    -252.245
  H      -42.156     426.202    -251.756
  P      -42.900     425.584    -255.861
  C      -42.411     425.930    -258.354
  O      -41.894     425.513    -257.107
  O      -44.284     425.971    -256.560
  O      -43.010     424.346    -255.030
  H      -44.665     425.176    -256.981
  H      -41.591     425.993    -259.070
  H      -42.872     426.925    -258.266
  H      -43.143     425.208    -258.712
  H      -41.452     431.654    -249.066
  H      -41.270     429.928    -248.859
  H      -42.708     430.732    -248.276

 3  4  5  6  7  8  9  10  11  12  13  21  23  27  28  29  30  32 0
 6-311+G(2d,p)
 ****
 34  35 0
 6-311+G(2d,p)
 ****
 1  2  14  15  16  17  18  19  20  22  24  25  26 0
 3-21G
 ****
 31  33  36  37  38  39  40  41  42  43  44  45  46 0
 3-21G
 ****


