%nproc=1
%NoSave
%Mem=1900MB
#P OB98/GEN NMR

erre ene a

0 1
  C      595.116    1353.710    -323.205
  O      596.085    1354.269    -324.068
  H      594.423    1353.104    -323.796
  H      594.549    1354.515    -322.720
  H      595.587    1353.079    -322.450
  P      597.303    1355.052    -323.375
  C      599.246    1353.495    -324.206
  O      598.595    1354.743    -324.282
  C      599.600    1352.983    -325.608
  O      598.391    1352.501    -326.249
  C      600.224    1354.050    -326.513
  O      601.206    1353.433    -327.342
  C      599.054    1354.517    -327.371
  O      599.484    1355.097    -328.600
  C      598.254    1353.208    -327.507
  N      596.848    1353.436    -327.842
  C      596.415    1352.985    -329.099
  O      597.214    1352.432    -329.858
  N      595.119    1353.205    -329.470
  C      594.331    1353.881    -328.698
  N      593.059    1354.081    -329.125
  C      594.751    1354.420    -327.385
  C      596.012    1354.157    -327.023
  O      597.543    1354.178    -322.052
  O      597.034    1356.501    -323.116
  H      600.256    1355.677    -328.406
  H      597.546    1353.225    -322.224
  H      594.063    1354.986    -326.768
  H      596.410    1354.499    -326.075
  H      598.702    1352.572    -328.281
  H      598.466    1355.255    -326.823
  H      600.673    1354.866    -325.945
  H      600.276    1352.123    -325.500
  H      592.810    1353.719    -330.045
  H      598.605    1352.752    -323.709
  H      592.371    1354.643    -328.632
  H      600.158    1353.610    -323.609
  P      602.233    1354.328    -328.179
  C      604.413    1353.566    -327.033
  O      603.667    1353.607    -328.237
  O      602.257    1355.781    -327.796
  O      601.689    1354.175    -329.686
  H      601.749    1355.048    -330.117
  H      605.341    1353.063    -327.206
  H      603.856    1353.040    -326.286
  H      604.605    1354.564    -326.698

 6  7  8  9  10  11  12  13  14  15  16  26  30  31  32  33  35 0
 6-311+G(2d,p)
 ****
 37  38 0
 6-311+G(2d,p)
 ****
 1  2  3  4  5  17  18  19  20  21  22  23  24  25 0
 3-21G
 ****
 27  28  29  34  36  39  40  41  42  43  44  45  46 0
 3-21G
 ****


