%nproc=1
%NoSave
%Mem=1900MB
#P OB98/GEN NMR

erre ene a

0 1
  C     -295.700     132.674    -288.544
  O     -294.498     132.581    -289.276
  H     -295.511     133.259    -287.638
  H     -296.044     131.679    -288.247
  H     -296.476     133.176    -289.125
  P     -294.533     131.916    -290.735
  C     -293.457     129.587    -291.018
  O     -294.570     130.325    -290.521
  C     -292.291     129.676    -290.034
  O     -292.748     129.357    -288.696
  C     -291.170     128.689    -290.320
  O     -290.382     129.106    -291.420
  C     -290.449     128.677    -288.979
  O     -289.563     129.796    -288.859
  C     -291.628     128.801    -287.984
  N     -291.966     127.511    -287.380
  C     -291.015     126.961    -286.529
  O     -289.939     127.501    -286.272
  N     -291.313     125.721    -286.028
  C     -292.381     124.947    -286.392
  O     -292.479     123.754    -286.114
  C     -293.383     125.609    -287.247
  C     -293.131     126.838    -287.701
  O     -293.501     132.404    -291.693
  O     -296.014     132.236    -291.257
  H     -295.978     132.982    -291.887
  H     -289.380     129.890    -287.905
  H     -290.607     125.291    -285.441
  H     -294.279     125.049    -287.504
  H     -293.838     127.331    -288.357
  H     -291.373     129.508    -287.181
  H     -289.859     127.767    -288.849
  H     -291.587     127.693    -290.507
  H     -291.920     130.710    -290.033
  H     -293.153     130.017    -291.982
  H     -293.761     128.544    -291.172
  P     -289.269     128.124    -292.038
  C     -286.916     128.677    -291.150
  O     -288.115     127.930    -290.941
  O     -288.788     128.495    -293.402
  O     -289.985     126.692    -292.060
  H     -289.885     126.302    -292.943
  H     -286.224     128.469    -290.361
  H     -287.144     129.722    -291.158
  H     -286.482     128.400    -292.088

 6  7  8  9  10  11  12  13  14  15  16  27  31  32  33  34  35 0
 6-311+G(2d,p)
 ****
 36  37 0
 6-311+G(2d,p)
 ****
 1  2  3  4  5  17  18  19  20  21  22  23  24  25 0
 3-21G
 ****
 26  28  29  30  38  39  40  41  42  43  44  45 0
 3-21G
 ****


