%nproc=1
%NoSave
%Mem=1900MB
#P OB98/GEN NMR

erre ene a

0 1
  C     -225.807     -40.634      -1.316
  O     -224.565     -41.177      -1.726
  P     -224.552     -42.628      -2.409
  C     -225.467     -41.908      -4.764
  O     -225.679     -42.605      -3.550
  C     -226.211     -42.598      -5.911
  O     -226.278     -41.689      -7.043
  C     -225.556     -43.895      -6.402
  O     -226.612     -44.786      -6.784
  C     -224.778     -43.438      -7.622
  O     -224.491     -44.500      -8.520
  C     -225.726     -42.375      -8.184
  N     -225.070     -41.426      -9.085
  C     -224.603     -41.904     -10.305
  O     -224.691     -43.078     -10.659
  N     -223.993     -40.978     -11.111
  C     -223.750     -39.673     -10.799
  O     -223.183     -38.893     -11.552
  C     -224.223     -39.237      -9.477
  C     -224.858     -40.115      -8.700
  O     -225.191     -43.523      -1.248
  O     -223.204     -43.063      -2.870
  H     -225.880     -43.057      -0.745
  H     -224.032     -44.125      -9.294
  H     -223.680     -41.294     -12.018
  H     -224.036     -38.211      -9.185
  H     -225.215     -39.818      -7.721
  H     -226.564     -42.856      -8.705
  H     -223.825     -42.998      -7.303
  H     -224.930     -44.365      -5.638
  H     -227.242     -42.789      -5.587
  H     -224.399     -41.891      -4.991
  H     -225.803     -40.872      -4.648
  P     -226.546     -46.309      -6.266
  C     -227.447     -45.790      -3.864
  O     -226.396     -46.266      -4.673
  O     -225.070     -46.708      -6.753
  O     -227.600     -47.208      -6.819
  H     -224.400     -46.047      -6.512
  H     -227.295     -46.148      -2.842
  H     -228.417     -46.150      -4.217
  H     -227.441     -44.697      -3.860
  H     -225.649     -39.669      -0.882
  H     -226.257     -41.281      -0.592
  H     -226.454     -40.543      -2.164

 3  4  5  6  7  8  9  10  11  12  13  24  28  29  30  31  32 0
 6-311+G(2d,p)
 ****
 33  34 0
 6-311+G(2d,p)
 ****
 1  2  14  15  16  17  18  19  20  21  22  23  25  26  27 0
 3-21G
 ****
 35  36  37  38  39  40  41  42  43  44  45 0
 3-21G
 ****


