%nproc=1
%NoSave
%Mem=1900MB
#P OB98/GEN NMR

erre ene a

0 1
  C      -13.842      65.836       3.965
  O      -14.322      66.583       2.865
  H      -14.542      65.020       4.166
  H      -13.765      66.461       4.859
  H      -12.865      65.406       3.729
  P      -13.609      67.983       2.534
  C      -14.297      67.689       0.063
  O      -14.337      68.533       1.211
  C      -15.553      67.870      -0.793
  O      -16.640      67.094      -0.251
  C      -16.066      69.301      -0.833
  O      -15.233      70.194      -1.540
  C      -17.513      69.117      -1.267
  O      -17.675      69.049      -2.680
  C      -17.865      67.750      -0.634
  N      -18.783      67.888       0.490
  C      -20.135      67.922       0.168
  O      -20.560      67.864      -0.986
  N      -20.996      68.069       1.220
  C      -20.638      68.234       2.526
  O      -21.458      68.403       3.421
  C      -19.194      68.215       2.803
  C      -18.343      68.046       1.788
  O      -12.114      67.944       2.431
  O      -14.148      68.963       3.677
  H      -18.606      68.804      -2.850
  H      -13.588      69.773       3.745
  H      -21.980      68.085       1.007
  H      -18.874      68.346       3.828
  H      -17.271      68.030       1.966
  H      -18.344      67.100      -1.378
  H      -18.144      69.935      -0.912
  H      -16.102      69.676       0.197
  H      -15.339      67.498      -1.802
  H      -14.248      66.653       0.414
  H      -13.399      67.907      -0.524
  P      -14.888      71.666      -1.024
  C      -12.596      71.915      -2.223
  O      -13.940      72.371      -2.115
  O      -14.543      71.808       0.423
  O      -16.295      72.421      -1.261
  H      -16.397      73.080      -0.547
  H      -12.090      72.472      -2.984
  H      -12.591      70.876      -2.479
  H      -12.096      72.054      -1.287

 6  7  8  9  10  11  12  13  14  15  16  26  31  32  33  34  35 0
 6-311+G(2d,p)
 ****
 36  37 0
 6-311+G(2d,p)
 ****
 1  2  3  4  5  17  18  19  20  21  22  23  24  25 0
 3-21G
 ****
 27  28  29  30  38  39  40  41  42  43  44  45 0
 3-21G
 ****


