%nproc=1
%NoSave
%Mem=1900MB
#P OB98/GEN NMR

erre ene a

0 1
  C     -237.064     -17.449    -107.520
  O     -236.496     -18.574    -108.162
  H     -236.272     -16.807    -107.129
  H     -237.647     -16.885    -108.252
  H     -237.725     -17.764    -106.707
  P     -235.741     -19.635    -107.226
  C     -236.885     -21.767    -108.175
  O     -235.692     -21.003    -108.068
  C     -237.714     -21.298    -109.372
  O     -236.907     -21.416    -110.574
  C     -238.993     -22.114    -109.588
  O     -240.038     -21.233    -110.003
  C     -238.625     -23.053    -110.724
  O     -239.767     -23.490    -111.452
  C     -237.659     -22.190    -111.530
  N     -237.397     -25.261    -115.599
  C     -238.405     -24.524    -115.088
  N     -238.391     -23.725    -114.000
  C     -237.162     -23.693    -113.453
  C     -236.038     -24.391    -113.861
  C     -236.190     -25.217    -114.986
  N     -235.177     -26.002    -115.493
  N     -234.974     -24.126    -113.019
  C     -235.449     -23.283    -112.124
  N     -236.768     -22.997    -112.343
  O     -236.836     -19.930    -106.092
  O     -234.443     -19.184    -106.647
  H     -240.261     -24.127    -110.895
  H     -236.825     -19.208    -105.435
  H     -239.352     -24.587    -115.620
  H     -234.889     -22.861    -111.301
  H     -238.178     -21.497    -112.206
  H     -238.117     -23.937    -110.322
  H     -239.306     -22.655    -108.693
  H     -237.939     -20.232    -109.246
  H     -237.469     -21.646    -107.257
  H     -235.390     -26.606    -116.269
  H     -234.289     -26.029    -115.013
  H     -236.626     -22.825    -108.298
  P     -240.992     -20.651    -108.850
  C     -241.748     -18.449    -109.991
  O     -242.124     -19.741    -109.535
  O     -240.058     -19.594    -108.095
  O     -241.502     -21.696    -107.912
  H     -240.092     -19.747    -107.133
  H     -242.598     -17.961    -110.421
  H     -240.978     -18.541    -110.728
  H     -241.385     -17.871    -109.167

 6  7  8  9  10  11  12  13  14  15  25  28  32  33  34  35 0
 6-311+G(2d,p)
 ****
 36  39  40 0
 6-311+G(2d,p)
 ****
 1  2  3  4  5  16  17  18  19  20  21  22  23  24 0
 3-21G
 ****
 26  27  29  30  31  37  38  41  42  43  44  45  46  47 0
 3-21G
 ****
 48 0
 3-21G
 ****


