%nproc=1
%NoSave
%Mem=1900MB
#P OB98/GEN NMR

erre ene a

0 1
  C     -339.243    -576.019    -135.167
  O     -338.106    -575.636    -134.417
  H     -339.529    -575.191    -135.819
  H     -340.078    -576.250    -134.497
  H     -339.008    -576.891    -135.783
  P     -337.544    -576.710    -133.364
  C     -337.522    -574.697    -131.733
  O     -336.814    -575.824    -132.243
  C     -336.555    -573.577    -131.364
  O     -335.743    -573.965    -130.238
  C     -335.578    -573.203    -132.479
  O     -336.193    -572.293    -133.381
  C     -334.474    -572.526    -131.681
  O     -334.853    -571.165    -131.381
  C     -334.435    -573.352    -130.385
  N     -329.452    -574.381    -129.719
  C     -330.105    -573.216    -129.880
  N     -331.424    -573.017    -130.109
  C     -332.084    -574.192    -130.156
  C     -331.539    -575.461    -130.011
  C     -330.157    -575.534    -129.774
  N     -329.485    -576.730    -129.617
  N     -332.520    -576.425    -130.118
  C     -333.638    -575.746    -130.265
  N     -333.427    -574.395    -130.332
  O     -336.745    -577.827    -133.945
  O     -338.898    -577.154    -132.629
  H     -335.053    -570.737    -132.236
  H     -339.469    -576.383    -132.478
  H     -329.501    -572.320    -129.821
  H     -334.632    -576.188    -130.316
  H     -334.273    -572.719    -129.498
  H     -333.530    -572.477    -132.225
  H     -335.173    -574.081    -132.979
  H     -337.144    -572.707    -131.052
  H     -338.106    -574.988    -130.845
  H     -328.481    -576.699    -129.648
  H     -329.997    -577.588    -129.786
  H     -338.219    -574.367    -132.509
  P     -336.202    -572.578    -134.961
  C     -335.916    -570.029    -135.127
  O     -336.591    -571.172    -135.634
  O     -337.028    -573.749    -135.375
  O     -334.660    -572.741    -135.343
  H     -334.578    -573.179    -136.215
  H     -336.253    -569.156    -135.646
  H     -334.862    -570.145    -135.270
  H     -336.125    -569.926    -134.083

 6  7  8  9  10  11  12  13  14  15  25  28  32  33  34  35 0
 6-311+G(2d,p)
 ****
 36  39  40 0
 6-311+G(2d,p)
 ****
 1  2  3  4  5  16  17  18  19  20  21  22  23  24 0
 3-21G
 ****
 26  27  29  30  31  37  38  41  42  43  44  45  46  47 0
 3-21G
 ****
 48 0
 3-21G
 ****


