%nproc=1
%NoSave
%Mem=1900MB
#P OB98/GEN NMR

erre ene a

0 1
  C      121.783    -931.586    -213.361
  O      120.652    -931.836    -212.536
  P      120.039    -930.684    -211.618
  C      117.571    -930.179    -212.367
  O      118.957    -929.890    -212.467
  C      116.767    -929.043    -213.016
  O      117.165    -928.857    -214.374
  C      115.268    -929.317    -212.985
  O      114.664    -928.743    -211.839
  C      114.805    -928.735    -214.294
  O      114.628    -927.310    -214.174
  C      115.989    -929.047    -215.236
  N      116.075    -930.387    -215.825
  C      115.017    -930.851    -216.620
  O      114.020    -930.181    -216.889
  N      115.147    -932.129    -217.099
  C      116.238    -932.948    -216.903
  O      116.234    -934.171    -217.119
  C      117.405    -932.311    -216.298
  C      117.275    -931.095    -215.768
  O      121.256    -929.634    -211.493
  O      119.536    -931.126    -210.277
  H      115.457    -926.963    -213.751
  H      121.721    -929.757    -210.661
  H      114.342    -932.519    -217.562
  H      118.326    -932.881    -216.255
  H      118.120    -930.614    -215.287
  H      116.058    -928.320    -216.039
  H      113.834    -929.152    -214.587
  H      115.092    -930.405    -212.994
  H      116.989    -928.110    -212.464
  H      117.281    -930.301    -211.310
  H      117.353    -931.130    -212.867
  P      114.302    -929.655    -210.576
  C      115.104    -928.413    -208.481
  O      115.456    -929.346    -209.499
  O      114.061    -931.094    -210.873
  O      112.996    -928.945    -209.982
  H      112.180    -929.431    -210.297
  H      115.885    -928.428    -207.716
  H      114.156    -928.656    -208.024
  H      115.063    -927.400    -208.904
  H      122.039    -932.477    -213.895
  H      122.609    -931.285    -212.752
  H      121.551    -930.807    -214.058

 3  4  5  6  7  8  9  10  11  12  13  23  28  29  30  31  32 0
 6-311+G(2d,p)
 ****
 33  34 0
 6-311+G(2d,p)
 ****
 1  2  14  15  16  17  18  19  20  21  22  24  25  26  27 0
 3-21G
 ****
 35  36  37  38  39  40  41  42  43  44  45 0
 3-21G
 ****


