%nproc=1
%NoSave
%Mem=1900MB
#P OB98/GEN NMR

erre ene a

0 1
  C     -156.429    -234.137    -149.018
  O     -155.275    -234.419    -148.251
  H     -156.626    -234.985    -149.676
  H     -156.265    -233.251    -149.630
  H     -157.294    -233.983    -148.363
  P     -154.811    -233.304    -147.192
  C     -152.567    -232.346    -148.105
  O     -153.978    -232.227    -148.055
  C     -151.920    -231.003    -148.471
  O     -152.253    -230.029    -147.452
  C     -150.400    -231.065    -148.581
  O     -149.970    -230.324    -149.733
  C     -149.896    -230.411    -147.310
  O     -148.600    -229.844    -147.454
  C     -151.033    -229.413    -146.997
  N     -151.093    -229.080    -145.580
  C     -150.180    -228.123    -145.115
  O     -149.367    -227.620    -145.882
  N     -150.172    -227.804    -143.781
  C     -150.973    -228.431    -142.964
  N     -150.907    -228.094    -141.655
  C     -151.915    -229.486    -143.407
  C     -151.926    -229.744    -144.713
  O     -153.677    -234.060    -146.350
  O     -155.902    -232.726    -146.352
  H     -148.330    -229.478    -146.568
  H     -153.452    -233.574    -145.524
  H     -152.545    -229.994    -142.688
  H     -152.593    -230.506    -145.120
  H     -150.883    -228.488    -147.578
  H     -149.846    -231.164    -146.507
  H     -150.014    -232.084    -148.663
  H     -152.377    -230.646    -149.403
  H     -150.244    -227.383    -141.389
  H     -152.303    -233.097    -148.864
  H     -151.448    -228.538    -140.922
  H     -152.194    -232.677    -147.135
  P     -149.704    -231.180    -151.069
  C     -147.137    -231.263    -151.416
  O     -148.281    -231.909    -150.892
  O     -149.438    -230.070    -152.177
  O     -150.836    -232.085    -151.421
  H     -150.231    -229.920    -152.708
  H     -146.271    -231.861    -151.225
  H     -147.021    -230.308    -150.948
  H     -147.254    -231.131    -152.471

 6  7  8  9  10  11  12  13  14  15  16  26  30  31  32  33  35 0
 6-311+G(2d,p)
 ****
 37  38 0
 6-311+G(2d,p)
 ****
 1  2  3  4  5  17  18  19  20  21  22  23  24  25 0
 3-21G
 ****
 27  28  29  34  36  39  40  41  42  43  44  45  46 0
 3-21G
 ****


