%nproc=1
%NoSave
%Mem=1900MB
#P OB98/GEN NMR

erre ene a

0 1
  C     -300.368      30.955    -150.282
  O     -299.358      31.826    -149.818
  H     -300.437      30.101    -149.602
  H     -300.123      30.586    -151.282
  H     -301.330      31.470    -150.299
  P     -299.021      33.099    -150.734
  C     -297.327      31.990    -152.365
  O     -298.629      32.538    -152.184
  C     -296.641      32.685    -153.537
  O     -297.489      32.622    -154.710
  C     -296.375      34.167    -153.312
  O     -295.233      34.403    -152.504
  C     -296.179      34.644    -154.740
  O     -294.834      34.438    -155.191
  C     -297.172      33.766    -155.526
  N     -298.367      34.511    -155.914
  C     -298.154      35.585    -156.777
  O     -297.043      35.903    -157.200
  N     -299.264      36.310    -157.109
  C     -300.525      36.105    -156.635
  O     -301.468      36.827    -156.930
  C     -300.688      34.967    -155.713
  C     -299.615      34.235    -155.396
  O     -297.632      33.620    -150.136
  O     -300.065      34.165    -150.737
  H     -297.779      34.438    -149.628
  H     -294.809      34.752    -156.116
  H     -299.132      37.090    -157.735
  H     -301.677      34.776    -155.318
  H     -299.706      33.400    -154.713
  H     -296.698      33.379    -156.440
  H     -296.392      35.706    -154.828
  H     -297.264      34.652    -152.891
  H     -295.706      32.154    -153.757
  H     -297.407      30.920    -152.583
  H     -296.755      32.118    -151.442
  P     -295.270      35.661    -151.508
  C     -294.322      37.288    -153.344
  O     -295.370      36.957    -152.446
  O     -293.762      35.656    -150.974
  O     -296.319      35.544    -150.454
  H     -293.151      35.261    -151.618
  H     -294.577      38.181    -153.876
  H     -294.181      36.487    -154.039
  H     -293.418      37.446    -152.794

 6  7  8  9  10  11  12  13  14  15  16  27  31  32  33  34  35 0
 6-311+G(2d,p)
 ****
 36  37 0
 6-311+G(2d,p)
 ****
 1  2  3  4  5  17  18  19  20  21  22  23  24  25 0
 3-21G
 ****
 26  28  29  30  38  39  40  41  42  43  44  45 0
 3-21G
 ****


