%nproc=1
%NoSave
%Mem=1900MB
#P OB98/GEN NMR

erre ene a

0 1
  C     -804.520     -36.781    -662.565
  O     -805.124     -36.985    -661.300
  P     -804.176     -36.884    -660.005
  C     -805.703     -35.070    -658.932
  O     -804.403     -35.397    -659.421
  C     -805.872     -33.566    -658.819
  O     -805.745     -32.951    -660.121
  C     -807.223     -33.115    -658.292
  O     -807.296     -33.198    -656.875
  C     -807.261     -31.660    -658.759
  O     -806.509     -30.841    -657.839
  C     -806.534     -31.744    -660.121
  N     -809.637     -28.994    -663.037
  C     -808.872     -28.614    -661.952
  N     -808.913     -27.295    -661.604
  N     -808.127     -29.430    -661.263
  C     -808.144     -30.697    -661.729
  C     -808.869     -31.197    -662.795
  C     -809.723     -30.289    -663.529
  O     -810.477     -30.584    -664.451
  N     -808.617     -32.532    -662.980
  C     -807.720     -32.847    -662.072
  N     -807.428     -31.761    -661.253
  O     -802.702     -36.803    -660.633
  O     -804.305     -38.005    -659.034
  H     -805.574     -31.066    -657.962
  H     -802.046     -37.122    -660.001
  H     -810.188     -28.311    -663.538
  H     -807.250     -33.813    -661.948
  H     -805.834     -30.898    -660.241
  H     -808.272     -31.252    -658.815
  H     -809.358     -26.594    -662.180
  H     -808.047     -33.665    -658.775
  H     -808.325     -26.989    -660.839
  H     -805.058     -33.174    -658.184
  H     -805.831     -35.516    -657.948
  H     -806.453     -35.492    -659.618
  P     -808.692     -33.753    -656.248
  C     -807.832     -36.006    -655.289
  O     -808.559     -35.345    -656.313
  O     -809.755     -33.407    -657.401
  O     -809.046     -33.151    -654.938
  H     -810.639     -33.325    -657.023
  H     -807.980     -35.514    -654.310
  H     -806.767     -36.012    -655.525
  H     -808.190     -37.033    -655.208
  H     -805.259     -36.876    -663.333
  H     -803.753     -37.512    -662.716
  H     -804.091     -35.801    -662.602

 3  4  5  6  7  8  9  10  11  12  23  26  30  31  33  0
 6-311+G(2d,p)
 ****
 35  36  37  38 0
 6-311+G(2d,p)
 ****
 1  2  13  14  15  16  17  18  19  20  21  22  24  25  27  28  29 0
 3-21G
 ****
 32  34  39  40  41  42  43  44  45  46  47  48  49 0
 3-21G
 ****


