%nproc=1
%NoSave
%Mem=1900MB
#P OB98/GEN NMR

erre ene a

0 1
  C      279.738    -234.190     -98.790
  O      280.764    -234.275     -99.760
  H      279.906    -234.964     -98.036
  H      278.770    -234.366     -99.265
  H      279.745    -233.212     -98.302
  P      280.907    -233.038    -100.773
  C      281.883    -231.164     -99.268
  O      280.731    -231.707     -99.892
  C      281.686    -229.678     -98.989
  O      281.566    -228.944    -100.227
  C      280.433    -229.351     -98.177
  O      280.661    -229.509     -96.781
  C      280.240    -227.888     -98.538
  O      281.178    -227.074     -97.799
  C      280.596    -227.876    -100.031
  N      277.362    -225.682    -103.261
  C      278.353    -225.119    -102.478
  N      278.493    -223.778    -102.561
  N      279.129    -225.804    -101.682
  C      278.858    -227.129    -101.684
  C      277.904    -227.804    -102.407
  C      277.062    -227.037    -103.296
  O      276.180    -227.492    -104.022
  N      277.926    -229.149    -102.146
  C      278.878    -229.285    -101.247
  N      279.472    -228.090    -100.926
  O      279.547    -233.119    -101.620
  O      282.103    -233.080    -101.663
  H      282.067    -227.294     -98.131
  H      279.742    -233.514    -102.490
  H      276.786    -225.106    -103.851
  H      279.180    -230.223    -100.798
  H      281.076    -226.942    -100.333
  H      279.240    -227.523     -98.289
  H      277.913    -223.189    -103.139
  H      279.568    -229.933     -98.515
  H      279.214    -223.346    -101.997
  H      282.583    -229.308     -98.478
  H      282.749    -231.298     -99.928
  H      282.062    -231.700     -98.328
  P      279.404    -229.841     -95.841
  C      280.334    -232.121     -95.028
  O      279.307    -231.440     -95.741
  O      278.159    -229.448     -96.768
  O      279.372    -229.110     -94.547
  H      277.710    -228.662     -96.405
  H      280.141    -233.173     -95.043
  H      280.354    -231.777     -94.015
  H      281.279    -231.925     -95.490

 6  7  8  9  10  11  12  13  14  15  26  29  33  34 0
 6-311+G(2d,p)
 ****
 36  38  39  40  41 0
 6-311+G(2d,p)
 ****
 1  2  3  4  5  16  17  18  19  20  21  22  23  24  25 0
 3-21G
 ****
 27  28  30  31  32  35  37  42  43  44  45  46  47 0
 3-21G
 ****
 48  49 0
 3-21G
 ****


