%nproc=1
%NoSave
%Mem=1900MB
#P OB98/GEN NMR

erre ene a

0 1
  C       95.366    -257.022    -284.777
  O       95.367    -255.656    -285.140
  H       95.680    -257.612    -285.642
  H       94.364    -257.331    -284.483
  H       96.070    -257.200    -283.958
  P       94.948    -254.612    -283.992
  C       95.587    -252.112    -283.626
  O       95.334    -253.159    -284.546
  C       95.817    -250.789    -284.366
  O       96.947    -250.950    -285.276
  C       94.624    -250.336    -285.219
  O       94.646    -248.900    -285.289
  C       94.976    -250.922    -286.579
  O       94.177    -250.354    -287.594
  C       96.477    -250.620    -286.605
  N       97.980    -250.751    -291.490
  C       97.315    -249.819    -290.778
  N       96.962    -249.846    -289.477
  C       97.381    -250.986    -288.895
  C       98.079    -252.023    -289.481
  C       98.379    -251.881    -290.854
  N       99.052    -252.838    -291.578
  N       98.341    -253.033    -288.564
  C       97.810    -252.598    -287.443
  N       97.212    -251.374    -287.589
  O       96.032    -254.883    -282.840
  O       93.552    -254.742    -283.482
  H       94.191    -250.908    -288.404
  H       95.666    -255.503    -282.181
  H       97.022    -248.926    -291.333
  H       97.812    -253.133    -286.494
  H       96.673    -249.556    -286.774
  H       94.794    -252.005    -286.597
  H       93.658    -250.662    -284.827
  H       96.104    -250.012    -283.640
  H       96.481    -252.373    -283.039
  H       94.734    -252.005    -282.943
  H       99.213    -252.665    -292.563
  H       99.342    -253.692    -291.122
  P       93.781    -248.043    -284.235
  C       94.521    -246.958    -281.967
  O       94.782    -247.154    -283.352
  O       93.321    -249.170    -283.191
  O       92.595    -247.333    -284.801
  H       92.483    -248.905    -282.780
  H       95.288    -246.344    -281.543
  H       94.507    -247.905    -281.469
  H       93.572    -246.478    -281.847

 6  7  8  9  10  11  12  13  14  15  25  28  32  33  34  35 0
 6-311+G(2d,p)
 ****
 36  37  40 0
 6-311+G(2d,p)
 ****
 1  2  3  4  5  16  17  18  19  20  21  22  23  24 0
 3-21G
 ****
 26  27  29  30  31  38  39 41  42  43  44  45  46  47  48 0
 3-21G
 ****


