%nproc=1
%NoSave
%Mem=1900MB
#P OB98/GEN NMR

erre ene a

0 1
  C        0.628     113.559      28.517
  O        0.596     112.254      27.983
  P        1.931     111.530      27.471
  C        1.181     111.877      25.029
  O        2.216     112.081      25.986
  C        1.639     112.349      23.644
  O        1.685     113.811      23.640
  C        3.044     111.831      23.266
  O        3.111     111.173      22.000
  C        3.909     113.075      23.403
  O        5.126     113.011      22.685
  C        2.926     114.182      23.005
  N        3.383     115.510      23.409
  C        4.069     116.261      22.457
  O        4.302     115.885      21.311
  N        4.553     117.469      22.882
  C        4.524     117.938      24.162
  O        5.065     118.986      24.492
  C        3.820     117.084      25.131
  C        3.269     115.939      24.717
  O        1.934     110.042      27.583
  O        3.084     112.251      28.319
  H        5.650     112.274      23.049
  H        3.145     113.214      28.191
  H        5.053     118.023      22.204
  H        3.789     117.427      26.156
  H        2.745     115.288      25.410
  H        2.750     114.190      21.927
  H        4.170     113.186      24.464
  H        3.385     111.072      23.979
  H        0.890     112.023      22.915
  H        0.303     112.451      25.332
  H        0.893     110.820      25.012
  P        3.204     109.589      21.790
  C        5.738     109.631      22.377
  O        4.472     109.050      22.607
  O        3.123     109.128      20.373
  O        1.963     109.028      22.636
  H        1.647     108.194      22.238
  H        6.510     108.882      22.580
  H        5.878     110.473      23.062
  H        5.842     109.977      21.344
  H       -0.362     113.854      28.797
  H        1.008     114.236      27.781
  H        1.262     113.576      29.378

 3  4  5  6  7  8  9  10  11  12  13  23  28  29  30  31  32 0
 6-311+G(2d,p)
 ****
 33  34 0
 6-311+G(2d,p)
 ****
 1  2  14  15  16  17  18  19  20  21  22  24  25  26  27 0
 3-21G
 ****
 35  36  37  38  39  40  41  42  43  44  45 0
 3-21G
 ****


