%nproc=1
%NoSave
%Mem=1900MB
#P OB98/GEN NMR

erre ene a

0 1
  C       16.585     -27.926    -176.748
  O       15.337     -27.549    -176.159
  P       15.059     -28.068    -174.666
  C       13.995     -30.156    -173.547
  O       14.311     -29.483    -174.759
  C       12.497     -30.469    -173.496
  O       11.712     -29.287    -173.238
  C       11.951     -31.035    -174.801
  O       12.338     -32.388    -174.971
  C       10.454     -30.820    -174.605
  O        9.904     -31.847    -173.760
  C       10.419     -29.472    -173.866
  N        7.902     -25.033    -174.311
  C        7.971     -25.939    -173.305
  N        8.666     -27.096    -173.266
  C        9.344     -27.285    -174.412
  C        9.372     -26.453    -175.518
  C        8.602     -25.279    -175.443
  N        8.520     -24.367    -176.475
  N       10.180     -26.981    -176.505
  C       10.613     -28.124    -176.011
  N       10.146     -28.346    -174.741
  O       13.922     -27.071    -174.136
  O       16.267     -28.044    -173.787
  H        8.948     -31.903    -173.951
  H       14.297     -26.462    -173.471
  H        7.398     -25.698    -172.415
  H       11.264     -28.820    -176.527
  H        9.660     -29.454    -173.072
  H        9.892     -30.831    -175.543
  H       12.308     -30.437    -175.651
  H       12.325     -31.189    -172.681
  H       14.272     -29.540    -172.687
  H        7.885     -23.590    -176.371
  H        8.967     -24.579    -177.355
  H       14.594     -31.071    -173.483
  P       13.288     -32.745    -176.215
  C       12.856     -32.127    -178.673
  O       12.301     -32.661    -177.482
  O       13.485     -34.320    -176.029
  O       14.537     -31.935    -176.310
  H       12.640     -34.770    -175.834
  H       12.094     -32.159    -179.456
  H       13.718     -32.724    -178.988
  H       13.159     -31.089    -178.513
  H       16.650     -27.521    -177.736
  H       16.650     -28.993    -176.795
  H       17.389     -27.546    -176.154

 3  4  5  6  7  8  9  10  11  12  22  25  29  30  31  32 0
 6-311+G(2d,p)
 ****
 33  36  37 0
 6-311+G(2d,p)
 ****
 1  2  13  14  15  16  17  18  19  20  21  23  24  26 0
 3-21G
 ****
 27  28  34  35  38  39  40  41  42  43  44  45  46  47  48 0
 3-21G
 ****


