%nproc=1
%NoSave
%Mem=1900MB
#P OB98/GEN NMR

erre ene a

0 1
  C     -622.379     321.252    -170.987
  O     -622.105     319.869    -170.856
  H     -621.539     321.725    -171.499
  H     -622.500     321.701    -169.998
  H     -623.279     321.416    -171.582
  P     -623.295     318.882    -170.447
  C     -622.653     319.159    -167.958
  O     -623.693     319.223    -168.933
  C     -623.198     319.487    -166.564
  O     -624.429     318.736    -166.349
  C     -622.217     319.056    -165.464
  O     -622.341     319.865    -164.293
  C     -622.659     317.639    -165.146
  O     -622.270     317.211    -163.846
  C     -624.180     317.753    -165.324
  N     -627.921     314.422    -164.389
  C     -627.505     315.501    -163.635
  N     -628.179     315.727    -162.487
  N     -626.512     316.275    -163.971
  C     -625.886     315.894    -165.104
  C     -626.176     314.826    -165.924
  C     -627.310     313.996    -165.563
  O     -627.710     313.016    -166.186
  N     -625.305     314.752    -166.985
  C     -624.492     315.759    -166.808
  N     -624.805     316.499    -165.693
  O     -622.566     317.452    -170.304
  O     -624.441     318.819    -171.413
  H     -622.894     316.532    -163.549
  H     -623.217     316.737    -170.407
  H     -628.704     313.876    -164.098
  H     -623.648     316.011    -167.461
  H     -624.652     318.108    -164.400
  H     -622.195     316.969    -165.860
  H     -628.818     315.035    -162.092
  H     -621.185     319.076    -165.799
  H     -627.702     316.306    -161.779
  H     -623.461     320.552    -166.499
  H     -621.895     319.884    -168.257
  H     -622.182     318.178    -167.972
  P     -621.056     320.652    -163.761
  C     -619.505     318.817    -162.649
  O     -619.791     319.681    -163.731
  O     -621.374     320.905    -162.208
  O     -620.776     321.934    -164.488
  H     -621.468     321.862    -162.031
  H     -618.610     318.268    -162.858
  H     -620.318     318.135    -162.512
  H     -619.370     319.394    -161.758

 6  7  8  9  10  11  12  13  14  15  26  29  33  34 0
 6-311+G(2d,p)
 ****
 36  38  39  40  41 0
 6-311+G(2d,p)
 ****
 1  2  3  4  5  16  17  18  19  20  21  22  23  24  25 0
 3-21G
 ****
 27  28  30  31  32  35  37  42  43  44  45  46  47 0
 3-21G
 ****
 48  49 0
 3-21G
 ****


