%nproc=1
%NoSave
%Mem=1900MB
#P OB98/GEN NMR

erre ene a

0 1
  C     -267.973     406.847     367.475
  O     -267.265     405.679     367.110
  H     -267.628     407.201     368.454
  H     -267.780     407.626     366.736
  H     -269.045     406.639     367.517
  P     -267.377     404.420     368.099
  C     -267.500     402.880     366.012
  O     -266.885     403.125     367.272
  C     -266.433     402.664     364.950
  O     -265.802     403.943     364.656
  C     -265.325     401.662     365.347
  O     -265.252     400.594     364.393
  C     -264.035     402.470     365.242
  O     -262.956     401.736     364.679
  C     -264.430     403.663     364.372
  N     -260.685     406.593     362.530
  C     -261.561     405.767     361.907
  N     -262.602     405.102     362.444
  C     -262.729     405.366     363.759
  C     -261.911     406.196     364.521
  C     -260.837     406.811     363.853
  N     -259.911     407.608     364.495
  N     -262.326     406.208     365.838
  C     -263.341     405.369     365.879
  N     -263.610     404.815     364.649
  O     -268.956     404.206     368.244
  O     -266.728     404.597     369.427
  H     -262.205     402.349     364.602
  H     -269.195     404.098     369.176
  H     -261.411     405.624     360.838
  H     -263.891     405.076     366.772
  H     -264.340     403.428     363.297
  H     -263.745     402.804     366.256
  H     -265.451     401.268     366.357
  H     -266.927     402.330     364.022
  H     -268.115     403.742     365.733
  H     -259.113     407.909     363.961
  H     -259.958     407.692     365.498
  H     -268.160     402.007     366.097
  P     -265.941     399.199     364.832
  C     -267.954     399.175     363.175
  O     -266.701     398.622     363.550
  O     -267.153     399.676     365.782
  O     -265.014     398.261     365.539
  H     -267.377     398.984     366.425
  H     -268.318     398.675     362.302
  H     -267.835     400.217     362.965
  H     -268.653     399.050     363.975

 6  7  8  9  10  11  12  13  14  15  25  28  32  33  34  35 0
 6-311+G(2d,p)
 ****
 36  39  40 0
 6-311+G(2d,p)
 ****
 1  2  3  4  5  16  17  18  19  20  21  22  23  24 0
 3-21G
 ****
 26  27  29  30  31  37  38  41  42  43  44  45  46  47  48 0
 3-21G
 ****


