%nproc=1
%NoSave
%Mem=1900MB
#P OB98/GEN NMR

erre ene a

0 1
  C       51.989    -137.019     428.977
  O       50.614    -136.780     428.756
  H       52.089    -137.817     429.717
  H       52.465    -136.116     429.367
  H       52.477    -137.330     428.052
  P       50.238    -135.699     427.628
  C       50.490    -137.480     425.761
  O       49.642    -136.527     426.387
  C       49.749    -138.797     425.525
  O       49.448    -139.404     426.821
  C       48.421    -138.648     424.769
  O       48.249    -139.802     423.941
  C       47.386    -138.708     425.885
  O       46.091    -139.077     425.414
  C       48.046    -139.732     426.808
  N       44.189    -141.370     429.599
  C       44.506    -141.611     428.277
  N       43.670    -142.414     427.587
  N       45.555    -141.109     427.677
  C       46.324    -140.352     428.497
  C       46.119    -140.030     429.819
  C       44.938    -140.569     430.458
  O       44.594    -140.376     431.621
  N       47.115    -139.210     430.286
  C       47.919    -139.034     429.254
  N       47.482    -139.710     428.145
  O       51.675    -135.221     427.110
  O       49.400    -134.556     428.094
  H       45.877    -138.504     424.650
  H       51.959    -134.422     427.594
  H       43.363    -141.769     430.007
  H       48.820    -138.435     429.256
  H       47.936    -140.760     426.436
  H       47.307    -137.730     426.379
  H       42.868    -142.874     427.991
  H       48.344    -137.740     424.163
  H       43.910    -142.639     426.628
  H       50.422    -139.489     425.004
  H       51.356    -137.666     426.408
  H       50.843    -137.076     424.805
  P       47.755    -139.583     422.433
  C       49.964    -140.096     421.163
  O       48.641    -140.512     421.478
  O       48.286    -138.112     422.096
  O       46.275    -139.692     422.251
  H       47.711    -137.695     421.425
  H       50.422    -140.819     420.520
  H       50.534    -140.008     422.064
  H       49.931    -139.148     420.668

 6  7  8  9  10  11  12  13  14  15  26  29  33  34 0
 6-311+G(2d,p)
 ****
 36  38  39  40  41 0
 6-311+G(2d,p)
 ****
 1  2  3  4  5  16  17  18  19  20  21  22  23  24  25 0
 3-21G
 ****
 27  28  30  31  32  35  37  42  43  44  45  46  47 0
 3-21G
 ****
 48  49 0
 3-21G
 ****


