%nproc=1
%NoSave
%Mem=1900MB
#P OB98/GEN NMR

erre ene a

0 1
  C        3.168    -254.673     162.176
  O        2.052    -255.269     161.517
  P        2.283    -256.607     160.666
  C        1.309    -258.988     160.813
  O        1.047    -257.596     160.940
  C        0.073    -259.808     161.189
  O       -0.083    -259.910     162.617
  C       -1.225    -259.205     160.681
  O       -1.368    -259.405     159.286
  C       -2.247    -259.924     161.549
  O       -2.551    -261.224     161.016
  C       -1.495    -260.066     162.890
  N       -1.947    -259.129     163.906
  C       -2.624    -259.686     164.996
  O       -2.839    -260.897     165.040
  N       -3.050    -258.852     166.002
  C       -2.828    -257.576     165.918
  N       -3.268    -256.800     166.943
  C       -2.130    -256.947     164.780
  C       -1.729    -257.774     163.816
  O        3.634    -257.228     160.792
  O        2.008    -256.122     159.161
  H       -3.020    -261.066     160.172
  H        2.550    -256.663     158.553
  H       -1.964    -255.882     164.760
  H       -1.210    -257.398     162.939
  H       -1.621    -261.080     163.291
  H       -3.190    -259.371     161.610
  H       -1.244    -258.130     160.904
  H        0.200    -260.821     160.778
  H       -3.755    -257.253     167.707
  H        2.148    -259.263     161.458
  H       -3.101    -255.805     166.994
  H        1.621    -259.196     159.783
  P       -1.319    -258.113     158.339
  C       -0.237    -257.521     156.060
  O       -0.615    -258.537     156.968
  O       -0.217    -257.189     159.050
  O       -2.618    -257.389     158.199
  H       -0.455    -256.251     158.934
  H        0.490    -257.933     155.355
  H        0.218    -256.673     156.578
  H       -1.113    -257.181     155.503
  H        2.848    -253.794     162.696
  H        3.910    -254.408     161.452
  H        3.583    -255.369     162.874

 3  4  5  6  7  8  9  10  11  12  13  23  27  28  29  30  32 0
 6-311+G(2d,p)
 ****
 34  35 0
 6-311+G(2d,p)
 ****
 1  2  14  15  16  17  18  19  20  21  22  24  25  26 0
 3-21G
 ****
 31  33  36  37  38  39  40  41  42  43  44  45  46 0
 3-21G
 ****


