%nproc=1
%NoSave
%Mem=1900MB
#P OB98/GEN NMR

erre ene a

0 1
  C     -158.474       5.610    -101.095
  O     -159.492       4.633    -101.140
  H     -158.928       6.575    -100.856
  H     -157.987       5.683    -102.071
  H     -157.732       5.374    -100.329
  P     -159.077       3.087    -101.150
  C     -159.938       2.721    -103.555
  O     -160.047       2.345    -102.191
  C     -161.325       2.860    -104.194
  O     -161.940       4.086    -103.721
  C     -161.233       2.966    -105.719
  O     -162.405       2.472    -106.363
  C     -161.141       4.467    -105.945
  O     -161.553       4.863    -107.253
  C     -162.037       4.997    -104.828
  N     -163.470       9.163    -102.265
  C     -164.221       8.065    -102.637
  N     -165.525       8.079    -102.274
  N     -163.744       7.058    -103.321
  C     -162.446       7.212    -103.675
  C     -161.605       8.263    -103.386
  C     -162.136       9.356    -102.599
  O     -161.521      10.362    -102.262
  N     -160.358       8.069    -103.924
  C     -160.443       6.907    -104.541
  N     -161.684       6.336    -104.396
  O     -159.609       2.546     -99.739
  O     -157.616       2.810    -101.330
  H     -161.209       4.200    -107.881
  H     -159.126       1.740     -99.481
  H     -163.878       9.896    -101.714
  H     -159.640       6.431    -105.087
  H     -163.085       5.021    -105.151
  H     -160.096       4.766    -105.832
  H     -165.970       8.915    -101.926
  H     -160.364       2.456    -106.125
  H     -166.146       7.455    -102.796
  H     -161.971       2.037    -103.870
  H     -159.361       1.941    -104.057
  H     -159.376       3.652    -103.649
  P     -162.233       1.537    -107.653
  C     -164.530       2.306    -108.716
  O     -163.656       1.271    -108.323
  O     -161.826       0.119    -107.041
  O     -161.223       2.031    -108.642
  H     -160.923      -0.124    -107.317
  H     -165.417       1.882    -109.138
  H     -164.048       2.923    -109.445
  H     -164.788       2.898    -107.863

 6  7  8  9  10  11  12  13  14  15  26  29  33  34 0
 6-311+G(2d,p)
 ****
 36  38  39  40  41 0
 6-311+G(2d,p)
 ****
 1  2  3  4  5  16  17  18  19  20  21  22  23  24  25 0
 3-21G
 ****
 27  28  30  31  32  35  37  42  43  44  45  46  47 0
 3-21G
 ****
 48  49 0
 3-21G
 ****


