%nproc=1
%NoSave
%Mem=1900MB
#P OB98/GEN NMR

erre ene a

0 1
  C      343.677      31.338     594.313
  O      342.731      30.444     593.762
  P      343.220      29.485     592.569
  C      342.325      27.318     593.709
  O      343.444      28.026     593.195
  C      342.805      26.115     594.522
  O      343.501      26.557     595.710
  C      341.675      25.225     595.018
  O      341.198      24.369     593.989
  C      342.347      24.479     596.165
  O      343.096      23.357     595.676
  C      343.294      25.558     596.730
  N      342.789      26.143     597.973
  C      342.394      25.240     598.955
  O      342.434      24.017     598.794
  N      341.912      25.789     600.114
  C      341.740      27.118     600.359
  O      341.247      27.545     601.396
  C      342.149      28.029     599.273
  C      342.636      27.505     598.148
  O      344.706      29.998     592.254
  O      342.353      29.514     591.356
  H      343.659      23.689     594.945
  H      344.882      29.928     591.295
  H      341.644      25.151     600.843
  H      342.022      29.090     599.436
  H      342.934      28.156     597.329
  H      344.280      25.125     596.933
  H      341.623      24.091     596.890
  H      340.864      25.843     595.423
  H      343.511      25.538     593.909
  H      341.701      26.978     592.878
  H      341.728      27.994     594.335
  P      339.878      24.842     593.207
  C      340.786      25.209     590.785
  O      340.407      25.777     592.020
  O      339.239      25.845     594.279
  O      338.997      23.705     592.813
  H      339.917      26.308     594.801
  H      340.152      24.352     590.525
  H      341.831      24.885     590.838
  H      340.695      25.967     590.004
  H      343.216      31.909     595.092
  H      344.032      31.997     593.549
  H      344.499      30.784     594.716

 3  4  5  6  7  8  9  10  11  12  13  23  28  29  30  31  32 0
 6-311+G(2d,p)
 ****
 33  34 0
 6-311+G(2d,p)
 ****
 1  2  14  15  16  17  18  19  20  21  22  24  25  26 0
 3-21G
 ****
 27  35  36  37  38  39  40  41  42  43  44  45 0
 3-21G
 ****


