%nproc=1
%NoSave
%Mem=1900MB
#P OB98/GEN NMR

erre ene a

0 1
  C     -523.064     907.852     -37.942
  O     -523.508     908.774     -38.954
  P     -525.016     908.639     -39.477
  C     -524.407     906.910     -41.322
  O     -525.197     907.210     -40.181
  C     -525.044     905.791     -42.142
  O     -526.318     906.182     -42.696
  C     -524.206     905.346     -43.342
  O     -523.190     904.434     -42.950
  C     -525.251     904.639     -44.181
  O     -525.481     903.307     -43.674
  C     -526.495     905.508     -43.963
  N     -528.462     906.428     -48.618
  C     -528.386     905.298     -47.865
  N     -527.831     905.122     -46.653
  C     -527.325     906.287     -46.197
  C     -527.327     907.517     -46.841
  C     -527.925     907.557     -48.111
  N     -527.992     908.706     -48.864
  N     -526.700     908.474     -46.069
  C     -526.345     907.840     -44.970
  N     -526.699     906.516     -45.001
  O     -525.072     909.663     -40.701
  O     -526.051     908.975     -38.440
  H     -526.291     902.981     -44.098
  H     -525.957     910.078     -40.755
  H     -528.841     904.406     -48.311
  H     -525.849     908.292     -44.125
  H     -527.423     904.916     -43.900
  H     -524.947     904.522     -45.228
  H     -523.803     906.211     -43.878
  H     -525.220     904.936     -41.473
  H     -523.396     906.627     -41.019
  H     -528.461     908.678     -49.761
  H     -527.613     909.571     -48.490
  H     -524.287     907.818     -41.925
  P     -521.695     904.997     -42.864
  C     -521.246     903.288     -44.772
  O     -520.981     904.564     -44.229
  O     -521.015     904.053     -41.759
  O     -521.596     906.445     -42.499
  H     -520.317     904.542     -41.271
  H     -520.949     903.273     -45.822
  H     -522.311     903.048     -44.709
  H     -520.665     902.538     -44.222
  H     -522.044     908.060     -37.693
  H     -523.144     906.851     -38.312
  H     -523.674     907.959     -37.069

 3  4  5  6  7  8  9  10  11  12  22  25  29  30  31  32 0
 6-311+G(2d,p)
 ****
 33  36  37 0
 6-311+G(2d,p)
 ****
 1  2  13  14  15  16  17  18  19  20  21  23  24  26 0
 3-21G
 ****
 27  28  34  35  38  39  40  41  42  43  44  45  46  47  48 0
 3-21G
 ****


