%nproc=1
%NoSave
%Mem=1900MB
#P OB98/GEN NMR

erre ene a

0 1
  C     -893.293     406.200    -911.354
  O     -894.508     405.899    -912.018
  H     -892.523     406.407    -912.093
  H     -892.977     405.341    -910.749
  H     -893.415     407.071    -910.711
  P     -895.810     405.727    -911.109
  C     -896.869     408.125    -911.302
  O     -896.918     406.747    -911.667
  C     -898.104     408.852    -911.826
  O     -898.016     409.068    -913.261
  C     -899.401     408.071    -911.654
  O     -899.822     408.001    -910.307
  C     -900.326     408.873    -912.555
  O     -900.779     410.074    -911.907
  C     -899.387     409.209    -913.739
  N     -899.637     408.374    -914.909
  C     -900.838     408.640    -915.589
  O     -901.602     409.532    -915.193
  N     -901.151     407.862    -916.675
  C     -900.334     406.934    -917.071
  N     -900.710     406.194    -918.155
  C     -899.042     406.661    -916.394
  C     -898.755     407.408    -915.339
  O     -895.370     406.398    -909.727
  O     -896.324     404.337    -910.977
  H     -901.608     410.339    -912.363
  H     -895.019     407.302    -909.832
  H     -898.390     405.880    -916.774
  H     -897.856     407.262    -914.778
  H     -899.499     410.270    -914.030
  H     -901.213     408.315    -912.836
  H     -899.293     407.070    -912.088
  H     -898.162     409.828    -911.331
  H     -901.612     406.419    -918.580
  H     -895.952     408.598    -911.681
  H     -900.175     405.426    -918.523
  H     -896.834     408.184    -910.209
  P     -900.773     406.812    -909.807
  C     -898.790     405.916    -908.435
  O     -900.163     406.279    -908.408
  O     -901.012     405.742    -910.826
  O     -902.102     407.581    -909.336
  H     -901.958     408.232    -908.616
  H     -898.491     405.580    -907.464
  H     -898.202     406.765    -908.715
  H     -898.643     405.130    -909.146

 6  7  8  9  10  11  12  13  14  15  16  26  30  31  32  33  35 0
 6-311+G(2d,p)
 ****
 37  38 0
 6-311+G(2d,p)
 ****
 1  2  3  4  5  17  18  19  20  21  22  23  24  25 0
 3-21G
 ****
 27  28  29  34  36  39  40  41  42  43  44  45  46 0
 3-21G
 ****


