%nproc=1
%NoSave
%Mem=1900MB
#P OB98/GEN NMR

erre ene a

0 1
  C       35.692     615.583    1188.400
  O       36.485     616.750    1188.502
  H       35.900     614.939    1189.259
  H       35.935     615.037    1187.486
  H       34.634     615.851    1188.405
  P       36.409     617.785    1187.281
  C       34.402     619.268    1188.009
  O       34.877     618.239    1187.149
  C       33.513     620.230    1187.214
  O       34.334     621.046    1186.347
  C       32.523     619.536    1186.286
  O       31.381     619.049    1186.974
  C       32.187     620.667    1185.328
  O       31.152     621.511    1185.851
  C       33.522     621.418    1185.217
  N       34.192     621.144    1183.948
  C       33.642     621.766    1182.826
  O       32.653     622.503    1182.880
  N       34.244     621.484    1181.628
  C       35.281     620.619    1181.443
  O       35.735     620.367    1180.330
  C       35.813     619.978    1182.656
  C       35.249     620.264    1183.836
  O       36.644     616.858    1186.002
  O       37.390     618.911    1187.350
  H       37.538     617.014    1185.644
  H       31.482     621.841    1186.703
  H       33.856     621.928    1180.807
  H       36.640     619.284    1182.539
  H       35.614     619.799    1184.741
  H       33.356     622.505    1185.288
  H       31.833     620.276    1184.381
  H       33.020     618.733    1185.729
  H       32.992     620.884    1187.916
  H       35.242     619.828    1188.419
  H       33.844     618.814    1188.836
  P       30.577     617.823    1186.309
  C       32.303     616.141    1187.380
  O       31.628     616.610    1186.224
  O       30.422     618.344    1184.809
  O       29.293     617.526    1187.006
  H       31.142     618.959    1184.566
  H       32.953     615.335    1187.111
  H       31.587     615.797    1188.097
  H       32.878     616.937    1187.805

 6  7  8  9  10  11  12  13  14  15  16  27  31  32  33  34  35 0
 6-311+G(2d,p)
 ****
 36  37 0
 6-311+G(2d,p)
 ****
 1  2  3  4  5  17  18  19  20  21  22  23  24  25 0
 3-21G
 ****
 26  28  29  30  38  39  40  41  42  43  44  45 0
 3-21G
 ****


