%nproc=1
%NoSave
%Mem=1900MB
#P OB98/GEN NMR

erre ene a

0 1
  C     -395.040     206.226     -62.376
  O     -394.361     204.963     -62.386
  P     -393.165     204.784     -61.327
  C     -393.324     202.192     -61.399
  O     -392.506     203.347     -61.558
  C     -392.748     201.017     -62.182
  O     -392.571     201.336     -63.584
  C     -391.360     200.590     -61.697
  O     -391.448     199.870     -60.482
  C     -390.881     199.761     -62.892
  O     -391.458     198.452     -62.860
  C     -391.454     200.557     -64.080
  N     -387.072     200.778     -66.714
  C     -387.787     199.734     -66.231
  N     -388.943     199.756     -65.537
  C     -389.369     201.021     -65.362
  C     -388.752     202.183     -65.803
  C     -387.549     202.031     -66.509
  N     -386.813     203.092     -66.987
  N     -389.482     203.293     -65.439
  C     -390.516     202.809     -64.770
  N     -390.493     201.441     -64.704
  O     -393.930     204.637     -59.928
  O     -392.204     205.929     -61.314
  H     -390.969     197.928     -62.195
  H     -393.806     205.442     -59.389
  H     -387.366     198.750     -66.426
  H     -391.295     203.412     -64.305
  H     -391.842     199.899     -64.868
  H     -389.796     199.648     -62.920
  H     -390.716     201.471     -61.571
  H     -393.438     200.172     -62.101
  H     -394.344     202.397     -61.746
  H     -385.919     202.896     -67.415
  H     -387.109     204.034     -66.768
  H     -393.400     201.957     -60.332
  P     -390.549     200.376     -59.250
  C     -392.452     199.512     -57.765
  O     -391.057     199.484     -58.018
  O     -391.189     201.805     -58.946
  O     -389.076     200.361     -59.498
  H     -392.168     201.768     -58.935
  H     -392.666     198.839     -56.923
  H     -393.005     199.166     -58.636
  H     -392.761     200.523     -57.487
  H     -395.810     206.223     -63.119
  H     -394.341     207.008     -62.589
  H     -395.476     206.389     -61.412

 3  4  5  6  7  8  9  10  11  12  22  25  29  30  31  32 0
 6-311+G(2d,p)
 ****
 33  36  37 0
 6-311+G(2d,p)
 ****
 1  2  13  14  15  16  17  18  19  20  21  23  24  26 0
 3-21G
 ****
 27  28  34  35  38  39  40  41  42  43  44  45  46  47  48 0
 3-21G
 ****


