%nproc=1
%NoSave
%Mem=1900MB
#P OB98/GEN NMR

erre ene a

0 1
  C      185.617    -461.728     369.999
  O      186.483    -462.862     369.873
  P      187.265    -463.363     371.179
  C      189.239    -461.721     370.754
  O      188.244    -462.181     371.654
  C      190.083    -460.625     371.410
  O      189.264    -459.529     371.879
  C      190.873    -461.104     372.624
  O      192.089    -461.733     372.245
  C      191.168    -459.782     373.320
  O      192.280    -459.128     372.675
  C      189.873    -458.992     373.079
  N      188.315    -456.806     377.365
  C      189.296    -456.420     376.473
  N      189.957    -455.277     376.768
  N      189.604    -457.095     375.399
  C      188.848    -458.200     375.222
  C      187.851    -458.685     376.032
  C      187.527    -457.940     377.232
  O      186.673    -458.243     378.059
  N      187.319    -459.847     375.528
  C      187.981    -460.053     374.406
  N      188.932    -459.092     374.186
  O      188.284    -464.446     370.590
  O      186.387    -463.944     372.235
  H      192.080    -459.117     371.716
  H      188.490    -465.112     371.271
  H      188.113    -456.251     378.180
  H      187.804    -460.878     373.729
  H      190.062    -457.928     372.908
  H      191.441    -459.916     374.369
  H      189.742    -454.687     377.551
  H      190.258    -461.738     373.269
  H      190.664    -454.962     376.108
  H      190.784    -460.237     370.658
  H      188.782    -461.342     369.835
  H      189.859    -462.572     370.446
  P      192.099    -463.332     372.127
  C      194.148    -463.499     373.716
  O      192.808    -463.868     373.464
  O      193.180    -463.596     370.975
  O      190.778    -463.941     371.799
  H      192.943    -464.402     370.477
  H      194.408    -463.814     374.728
  H      194.270    -462.414     373.642
  H      194.819    -463.997     373.010
  H      185.169    -461.514     369.051
  H      186.184    -460.881     370.325
  H      184.851    -461.942     370.715

 3  4  5  6  7  8  9  10  11  12  23  26  30  31 0
 6-311+G(2d,p)
 ****
 33  35  36  37  38 0
 6-311+G(2d,p)
 ****
 1  2  13  14  15  16  17  18  19  20  21  22  24  25 0
 3-21G
 ****
 27  28  29  32  34  39  40  41  42  43  44  45  46  47  48  49 0
 3-21G
 ****


