%nproc=1
%NoSave
%Mem=1900MB
#P OB98/GEN NMR

erre ene a

0 1
  C      -84.076    -112.155     229.204
  O      -84.653    -112.028     227.919
  P      -85.681    -110.838     227.620
  C      -87.736    -109.812     228.772
  O      -86.873    -110.942     228.687
  C      -88.423    -109.772     230.137
  O      -87.444    -109.820     231.193
  C      -89.234    -108.505     230.386
  O      -90.463    -108.549     229.689
  C      -89.361    -108.532     231.905
  O      -90.425    -109.408     232.309
  C      -88.001    -109.111     232.325
  N      -86.476    -106.370     236.346
  C      -87.532    -107.192     236.164
  N      -87.892    -107.856     235.046
  C      -87.045    -107.585     234.042
  C      -85.946    -106.741     234.067
  C      -85.652    -106.130     235.297
  N      -84.544    -105.337     235.510
  N      -85.345    -106.696     232.822
  C      -86.071    -107.490     232.064
  N      -87.069    -108.099     232.773
  O      -86.117    -110.711     226.197
  O      -84.892    -109.526     228.090
  H      -90.472    -109.379     233.283
  H      -84.779    -108.927     227.328
  H      -88.164    -107.342     237.034
  H      -85.906    -107.670     231.010
  H      -88.104    -109.842     233.136
  H      -89.573    -107.546     232.326
  H      -88.651    -107.626     230.089
  H      -89.060    -110.663     230.224
  H      -88.488    -109.894     227.982
  H      -84.351    -105.073     236.464
  H      -83.776    -105.397     234.847
  H      -87.156    -108.899     228.614
  P      -91.234    -107.187     229.349
  C      -92.219    -105.355     230.850
  O      -92.006    -106.743     230.683
  O      -92.063    -107.205     228.108
  O      -90.056    -106.104     229.245
  H      -90.300    -105.421     228.593
  H      -91.293    -104.880     231.190
  H      -92.992    -105.208     231.606
  H      -92.545    -104.894     229.913
  H      -83.420    -113.000     229.218
  H      -84.850    -112.292     229.930
  H      -83.522    -111.269     229.435

 3  4  5  6  7  8  9  10  11  12  22  25  29  30  31  32 0
 6-311+G(2d,p)
 ****
 33  36  37 0
 6-311+G(2d,p)
 ****
 1  2  13  14  15  16  17  18  19  20  21  23  24  26 0
 3-21G
 ****
 27  28  34  35  38  39  40  41  42  43  44  45  46  47  48 0
 3-21G
 ****


