%nproc=1
%NoSave
%Mem=1900MB
#P OB98/GEN NMR

erre ene a

0 1
  C      390.619     -71.199     848.571
  O      390.658     -71.625     849.935
  P      390.139     -70.603     851.044
  C      392.575     -69.760     851.343
  O      391.222     -69.416     851.116
  C      393.179     -68.885     852.431
  O      392.950     -67.474     852.149
  C      392.580     -69.111     853.818
  O      393.145     -70.232     854.476
  C      392.992     -67.819     854.534
  O      394.364     -67.907     854.955
  C      392.844     -66.778     853.409
  N      390.504     -62.609     855.134
  C      391.863     -62.934     855.084
  N      392.700     -62.024     855.643
  N      392.349     -64.019     854.556
  C      391.381     -64.836     854.046
  C      390.019     -64.642     854.019
  C      389.502     -63.430     854.624
  O      388.303     -63.124     854.736
  N      389.367     -65.687     853.411
  C      390.329     -66.520     853.065
  N      391.578     -66.054     853.472
  O      390.356     -71.391     852.422
  O      388.709     -70.164     850.879
  H      394.609     -67.033     855.328
  H      389.829     -70.978     853.139
  H      390.185     -61.768     855.553
  H      390.194     -67.449     852.542
  H      393.645     -66.030     853.443
  H      392.401     -67.607     855.416
  H      392.390     -61.185     856.122
  H      391.482     -69.165     853.781
  H      393.690     -62.243     855.688
  H      394.268     -69.043     852.452
  H      393.138     -69.635     850.410
  H      392.640     -70.819     851.627
  P      392.153     -71.097     855.411
  C      393.324     -70.776     857.703
  O      392.252     -70.437     856.856
  O      392.941     -72.491     855.568
  O      390.781     -71.275     854.831
  H      392.310     -73.206     855.730
  H      393.391     -70.053     858.516
  H      394.278     -70.766     857.157
  H      393.166     -71.780     858.119
  H      390.994     -71.980     847.943
  H      391.224     -70.324     848.453
  H      389.610     -70.974     848.296

 3  4  5  6  7  8  9  10  11  12  23  26  30  31 0
 6-311+G(2d,p)
 ****
 33  35  36  37  38 0
 6-311+G(2d,p)
 ****
 1  2  13  14  15  16  17  18  19  20  21  22  24  25 0
 3-21G
 ****
 27  28  29  32  34  39  40  41  42  43  44  45  46  47  48  49 0
 3-21G
 ****


