%nproc=1
%NoSave
%Mem=1900MB
#P OB98/GEN NMR

erre ene a

0 1
  C      422.053     486.077     268.177
  O      422.620     485.947     266.885
  H      421.459     485.187     268.392
  H      421.399     486.954     268.217
  H      422.844     486.166     268.929
  P      423.451     487.213     266.344
  C      422.232     487.702     264.091
  O      423.328     487.084     264.754
  C      422.224     487.305     262.619
  O      423.383     487.844     261.946
  C      422.285     485.792     262.378
  O      421.030     485.153     262.567
  C      422.723     485.772     260.926
  O      421.610     486.089     260.074
  C      423.786     486.895     260.913
  N      425.136     486.409     261.158
  C      425.601     485.371     260.347
  O      424.862     484.884     259.480
  N      426.865     484.870     260.547
  C      427.617     485.370     261.477
  N      428.854     484.838     261.653
  C      427.192     486.490     262.351
  C      425.955     486.953     262.136
  O      424.982     486.803     266.609
  O      423.059     488.537     266.905
  H      421.962     486.151     259.163
  H      425.578     487.470     266.193
  H      427.839     486.868     263.116
  H      425.566     487.766     262.743
  H      423.774     487.427     259.954
  H      423.098     484.785     260.617
  H      423.061     485.315     262.991
  H      421.332     487.747     262.149
  H      429.108     484.036     261.080
  H      422.342     488.785     264.187
  H      429.436     485.042     262.456
  H      421.290     487.397     264.548
  P      421.029     483.674     263.169
  C      419.516     482.707     261.289
  O      419.668     482.971     262.674
  O      420.774     483.904     264.730
  O      422.280     482.880     262.913
  H      421.302     483.289     265.268
  H      418.568     482.241     261.117
  H      420.299     482.054     260.962
  H      419.567     483.626     260.743

 6  7  8  9  10  11  12  13  14  15  16  26  30  31  32  33  35 0
 6-311+G(2d,p)
 ****
 37  38 0
 6-311+G(2d,p)
 ****
 1  2  3  4  5  17  18  19  20  21  22  23  24  25 0
 3-21G
 ****
 27  28  29  34  36  39  40  41  42  43  44  45  46 0
 3-21G
 ****


