%nproc=1
%NoSave
%Mem=1900MB
#P OB98/GEN NMR

erre ene a

0 1
  C      -59.731    1011.019     454.715
  O      -61.128    1011.159     454.897
  H      -59.257    1010.955     455.690
  H      -59.334    1011.890     454.184
  H      -59.516    1010.099     454.150
  P      -62.015    1011.292     453.565
  C      -63.278    1013.387     454.430
  O      -63.372    1012.045     453.996
  C      -64.611    1013.854     454.993
  O      -65.585    1014.032     453.937
  C      -65.243    1012.922     456.016
  O      -64.696    1013.124     457.305
  C      -66.701    1013.321     455.936
  O      -66.979    1014.509     456.707
  C      -66.883    1013.600     454.430
  N      -70.978    1011.082     452.866
  C      -70.872    1012.256     453.576
  N      -72.037    1012.810     453.999
  N      -69.723    1012.826     453.887
  C      -68.652    1012.129     453.448
  C      -68.628    1010.968     452.709
  C      -69.890    1010.369     452.346
  O      -70.054    1009.369     451.656
  N      -67.343    1010.590     452.426
  C      -66.590    1011.496     453.018
  N      -67.345    1012.452     453.667
  O      -62.501    1009.793     453.278
  O      -61.313    1011.877     452.380
  H      -67.821    1014.897     456.414
  H      -62.603    1009.666     452.320
  H      -71.876    1010.695     452.650
  H      -65.508    1011.518     453.017
  H      -67.586    1014.420     454.236
  H      -67.370    1012.547     456.324
  H      -72.880    1012.272     454.086
  H      -65.136    1011.877     455.696
  H      -71.969    1013.669     454.536
  H      -64.449    1014.858     455.445
  H      -62.997    1014.027     453.583
  H      -62.496    1013.455     455.208
  P      -63.440    1012.210     457.736
  C      -64.611    1010.983     459.718
  O      -63.619    1011.910     459.308
  O      -62.200    1013.226     457.694
  O      -63.206    1011.007     456.863
  H      -61.358    1012.723     457.668
  H      -64.601    1010.898     460.785
  H      -64.408    1010.027     459.282
  H      -65.573    1011.325     459.397

 6  7  8  9  10  11  12  13  14  15  26  29  33  34 0
 6-311+G(2d,p)
 ****
 36  38  39  40  41 0
 6-311+G(2d,p)
 ****
 1  2  3  4  5  16  17  18  19  20  21  22  23  24  25 0
 3-21G
 ****
 27  28  30  31  32  35  37  42  43  44  45  46  47 0
 3-21G
 ****
 48  49 0
 3-21G
 ****


