%nproc=1
%NoSave
%Mem=1900MB
#P OB98/GEN NMR

erre ene a

0 1
  C      -44.381     -67.101      73.797
  O      -43.819     -66.596      72.600
  H      -45.042     -67.936      73.551
  H      -44.967     -66.320      74.289
  H      -43.596     -67.457      74.469
  P      -42.643     -65.521      72.765
  C      -44.217     -63.571      71.993
  O      -42.998     -64.276      71.809
  C      -44.751     -63.088      70.648
  O      -46.059     -62.503      70.795
  C      -43.930     -61.978      70.012
  O      -42.700     -62.437      69.499
  C      -44.894     -61.495      68.937
  O      -44.805     -62.291      67.749
  C      -46.270     -61.683      69.621
  N      -46.892     -60.411      69.938
  C      -47.708     -59.876      68.932
  O      -47.871     -60.490      67.877
  N      -48.281     -58.648      69.135
  C      -48.040     -57.998      70.231
  N      -48.614     -56.771      70.355
  C      -47.186     -58.525      71.314
  C      -46.648     -59.726      71.104
  O      -41.424     -66.226      72.008
  O      -42.345     -65.130      74.172
  H      -45.121     -63.185      67.994
  H      -41.652     -66.565      71.127
  H      -47.028     -57.950      72.215
  H      -46.008     -60.188      71.846
  H      -46.951     -62.244      68.967
  H      -44.686     -60.463      68.645
  H      -43.782     -61.161      70.730
  H      -44.831     -63.957      69.981
  H      -49.146     -56.425      69.566
  H      -44.073     -62.723      72.671
  H      -48.435     -56.144      71.125
  H      -44.930     -64.255      72.464
  P      -41.330     -61.668      69.806
  C      -41.633     -60.795      67.401
  O      -40.708     -61.247      68.384
  O      -40.380     -62.386      70.702
  O      -41.828     -60.258      70.380
  H      -42.383     -59.741      69.771
  H      -41.106     -60.545      66.504
  H      -42.147     -59.930      67.766
  H      -42.341     -61.570      67.195

 6  7  8  9  10  11  12  13  14  15  16  26  30  31  32  33  35 0
 6-311+G(2d,p)
 ****
 37  38 0
 6-311+G(2d,p)
 ****
 1  2  3  4  5  17  18  19  20  21  22  23  24  25 0
 3-21G
 ****
 27  28  29  34  36  39  40  41  42  43  44  45  46 0
 3-21G
 ****


