%nproc=1
%NoSave
%Mem=1900MB
#P OB98/GEN NMR

erre ene a

0 1
  C      168.777      41.642    -286.836
  O      167.582      41.767    -287.578
  H      168.552      41.392    -285.796
  H      169.377      40.836    -287.268
  H      169.351      42.571    -286.881
  P      166.555      42.909    -287.111
  C      164.581      41.479    -288.012
  O      165.145      42.170    -286.905
  C      163.957      40.172    -287.536
  O      164.986      39.259    -287.096
  C      163.008      40.325    -286.353
  O      161.718      40.754    -286.752
  C      162.979      38.899    -285.834
  O      162.129      38.093    -286.673
  C      164.445      38.477    -285.997
  N      165.655      36.692    -281.358
  C      164.795      36.248    -282.298
  N      164.527      36.782    -283.507
  C      165.254      37.893    -283.707
  C      166.163      38.471    -282.837
  C      166.361      37.816    -281.609
  N      167.227      38.276    -280.641
  N      166.689      39.628    -283.379
  C      166.129      39.725    -284.568
  N      165.247      38.705    -284.808
  O      166.322      43.771    -288.440
  O      166.997      43.745    -285.957
  H      161.214      38.382    -286.502
  H      165.987      44.657    -288.209
  H      164.249      35.342    -282.045
  H      166.331      40.508    -285.285
  H      164.551      37.419    -286.263
  H      162.591      38.821    -284.817
  H      163.428      40.980    -285.579
  H      163.444      39.710    -288.390
  H      165.370      41.260    -288.739
  H      167.157      37.842    -279.733
  H      167.642      39.188    -280.759
  H      163.825      42.114    -288.485
  P      161.321      42.279    -286.447
  C      159.459      41.307    -284.911
  O      160.516      42.252    -285.062
  O      160.189      42.584    -287.534
  O      162.456      43.245    -286.520
  H      160.152      43.538    -287.739
  H      159.022      41.412    -283.940
  H      159.848      40.316    -285.022
  H      158.714      41.483    -285.658

 6  7  8  9  10  11  12  13  14  15  25  28  32  33  34  35 0
 6-311+G(2d,p)
 ****
 36  39  40 0
 6-311+G(2d,p)
 ****
 1  2  3  4  5  16  17  18  19  20  21  22  23  24 0
 3-21G
 ****
 26  27  29  30  31  37  38  41  42  43  44  45  46  47 0
 3-21G
 ****
 48 0
 3-21G
 ****


