%nproc=1
%NoSave
%Mem=1900MB
#P OB98/GEN NMR

erre ene a

0 1
  C      192.424     149.256    -122.931
  O      192.873     148.039    -122.357
  P      191.878     147.268    -121.358
  C      190.853     146.121    -123.461
  O      190.620     146.796    -122.237
  C      190.001     144.854    -123.546
  O      190.282     144.190    -124.807
  C      190.250     143.832    -122.431
  O      189.005     143.170    -122.182
  C      191.225     142.861    -123.070
  O      191.237     141.590    -122.427
  C      190.710     142.845    -124.505
  N      192.612     138.947    -127.103
  C      191.611     138.969    -126.150
  N      190.993     137.795    -125.902
  N      191.248     140.046    -125.502
  C      191.944     141.147    -125.870
  C      192.981     141.243    -126.768
  C      193.346     140.055    -127.505
  O      194.167     140.007    -128.418
  N      193.496     142.511    -126.807
  C      192.720     143.198    -125.992
  N      191.737     142.424    -125.436
  O      191.290     148.450    -120.458
  O      192.498     146.176    -120.543
  H      192.103     141.172    -122.606
  H      191.804     148.553    -119.633
  H      192.835     138.090    -127.583
  H      192.818     144.250    -125.773
  H      189.849     142.174    -124.636
  H      192.242     143.271    -123.021
  H      191.200     136.934    -126.386
  H      190.637     144.276    -121.509
  H      190.234     137.790    -125.231
  H      188.943     145.150    -123.563
  H      191.907     145.834    -123.512
  H      190.636     146.793    -124.298
  P      188.757     142.562    -120.719
  C      187.649     144.619    -119.602
  O      188.783     143.777    -119.680
  O      190.131     141.792    -120.418
  O      187.594     141.630    -120.616
  H      189.955     141.013    -119.859
  H      187.645     145.112    -118.626
  H      186.720     144.054    -119.715
  H      187.707     145.380    -120.382
  H      193.186     149.652    -123.569
  H      192.209     149.959    -122.154
  H      191.538     149.075    -123.503

 3  4  5  6  7  8  9  10  11  12  23  26  30  31 0
 6-311+G(2d,p)
 ****
 33  35  36  37  38 0
 6-311+G(2d,p)
 ****
 1  2  13  14  15  16  17  18  19  20  21  22  24  25 0
 3-21G
 ****
 27  28  29  32  34  39  40  41  42  43  44  45  46  47  48  49 0
 3-21G
 ****


