%nproc=1
%NoSave
%Mem=1900MB
#P OB98/GEN NMR

erre ene a

0 1
  C     -300.745    -111.238    -348.805
  O     -300.616    -112.646    -348.702
  P     -301.853    -113.545    -349.195
  C     -300.508    -115.602    -350.030
  O     -301.275    -114.456    -350.386
  C     -299.026    -115.341    -350.255
  O     -298.613    -114.178    -349.508
  C     -298.108    -116.468    -349.797
  O     -298.033    -117.516    -350.751
  C     -296.776    -115.736    -349.683
  O     -296.168    -115.635    -350.986
  C     -297.207    -114.343    -349.187
  N     -294.231    -112.422    -345.565
  C     -294.083    -112.400    -346.940
  N     -292.998    -111.748    -347.417
  N     -294.918    -112.964    -347.771
  C     -295.974    -113.542    -347.152
  C     -296.231    -113.635    -345.802
  C     -295.271    -113.045    -344.891
  O     -295.314    -113.089    -343.664
  N     -297.413    -114.285    -345.560
  C     -297.892    -114.555    -346.759
  N     -297.038    -114.154    -347.757
  O     -302.785    -112.488    -349.961
  O     -302.592    -114.256    -348.114
  H     -296.155    -116.535    -351.364
  H     -303.709    -112.795    -349.959
  H     -293.562    -111.953    -344.975
  H     -298.842    -115.037    -346.950
  H     -296.664    -113.547    -349.712
  H     -296.061    -116.248    -349.031
  H     -292.394    -111.185    -346.841
  H     -298.404    -116.843    -348.811
  H     -292.891    -111.691    -348.423
  H     -298.871    -115.129    -351.321
  H     -300.818    -116.447    -350.653
  H     -300.702    -115.848    -348.981
  P     -298.943    -118.811    -350.470
  C     -300.440    -118.630    -352.590
  O     -300.344    -118.502    -351.182
  O     -299.265    -118.699    -348.907
  O     -298.292    -120.106    -350.822
  H     -299.452    -119.578    -348.537
  H     -299.829    -119.462    -352.958
  H     -300.101    -117.698    -353.061
  H     -301.481    -118.811    -352.861
  H     -299.853    -110.771    -348.443
  H     -301.580    -110.913    -348.221
  H     -300.899    -110.968    -349.829

 3  4  5  6  7  8  9  10  11  12  23  26  30  31  33  0
 6-311+G(2d,p)
 ****
 35  36  37  38 0
 6-311+G(2d,p)
 ****
 1  2  13  14  15  16  17  18  19  20  21  22  24  25  27  28  29 0
 3-21G
 ****
 32  34  39  40  41  42  43  44  45  46  47  48  49 0
 3-21G
 ****


