%nproc=1
%NoSave
%Mem=1900MB
#P OB98/GEN NMR

erre ene a

0 1
  C     -482.069     626.389      43.486
  O     -482.359     626.458      42.088
  P     -481.452     627.403      41.157
  C     -481.472     625.545      39.372
  O     -481.640     626.930      39.635
  C     -482.452     625.076      38.291
  O     -483.819     625.155      38.740
  C     -482.390     625.907      37.024
  O     -481.226     625.605      36.274
  C     -483.706     625.535      36.353
  O     -483.589     624.294      35.641
  C     -484.650     625.362      37.568
  N     -485.561     626.477      37.754
  C     -486.626     626.556      36.851
  O     -486.730     625.736      35.938
  N     -487.541     627.573      36.989
  C     -487.393     628.436      37.953
  N     -488.334     629.421      38.052
  C     -486.283     628.394      38.921
  C     -485.410     627.408      38.763
  O     -480.035     627.572      41.595
  O     -482.240     628.802      41.189
  H     -482.997     624.481      34.882
  H     -481.594     629.524      41.087
  H     -486.211     629.135      39.707
  H     -484.562     627.302      39.422
  H     -485.247     624.452      37.453
  H     -484.030     626.300      35.633
  H     -482.396     626.977      37.286
  H     -482.226     624.026      38.058
  H     -489.080     629.437      37.365
  H     -481.643     624.977      40.292
  H     -488.335     630.106      38.794
  H     -480.438     625.361      39.071
  P     -480.632     626.753      35.324
  C     -478.117     626.356      35.799
  O     -479.171     626.299      34.858
  O     -480.336     627.948      36.352
  O     -481.547     627.203      34.225
  H     -480.487     628.809      35.915
  H     -477.290     625.725      35.435
  H     -478.436     625.977      36.772
  H     -477.767     627.382      35.898
  H     -482.758     625.722      43.961
  H     -482.161     627.364      43.918
  H     -481.071     626.030      43.626

 3  4  5  6  7  8  9  10  11  12  13  23  27  28  29  30  32 0
 6-311+G(2d,p)
 ****
 34  35 0
 6-311+G(2d,p)
 ****
 1  2  14  15  16  17  18  19  20  21  22  24  25  26 0
 3-21G
 ****
 31  33  36  37  38  39  40  41  42  43  44  45  46 0
 3-21G
 ****


