%nproc=1
%NoSave
%Mem=1900MB
#P OB98/GEN NMR

erre ene a

0 1
  C      129.958    -174.311     -72.718
  O      131.289    -173.891     -72.499
  P      131.934    -173.907     -71.035
  C      132.591    -171.416     -71.116
  O      131.811    -172.410     -70.458
  C      133.340    -170.561     -70.085
  O      134.302    -169.715     -70.789
  C      132.405    -169.642     -69.273
  O      132.550    -169.754     -67.856
  C      132.698    -168.268     -69.853
  O      132.339    -167.196     -69.003
  C      134.181    -168.396     -70.221
  N      134.624    -167.349     -71.139
  C      134.713    -166.055     -70.631
  O      134.454    -165.745     -69.472
  N      135.057    -165.082     -71.529
  C      135.202    -165.248     -72.874
  O      135.415    -164.314     -73.634
  C      135.057    -166.632     -73.358
  C      134.803    -167.609     -72.483
  O      133.306    -174.483     -70.948
  O      130.842    -174.688     -70.163
  H      132.961    -167.186     -68.251
  H      129.959    -174.275     -70.145
  H      135.123    -164.141     -71.174
  H      135.159    -166.793     -74.422
  H      134.693    -168.637     -72.809
  H      134.817    -168.367     -69.332
  H      132.106    -168.159     -70.771
  H      131.351    -169.895     -69.452
  H      133.892    -171.240     -69.429
  H      131.927    -170.774     -71.696
  H      133.284    -171.891     -71.817
  P      131.362    -169.583     -66.794
  C      132.290    -167.295     -65.985
  O      131.188    -168.025     -66.483
  O      131.456    -170.463     -65.589
  O      130.049    -169.935     -67.644
  H      129.368    -170.304     -67.055
  H      131.917    -166.467     -65.377
  H      132.857    -166.881     -66.825
  H      132.945    -167.917     -65.370
  H      129.723    -174.223     -73.758
  H      129.292    -173.697     -72.149
  H      129.851    -175.331     -72.413

 3  4  5  6  7  8  9  10  11  12  13  23  28  29  30  31  32 0
 6-311+G(2d,p)
 ****
 33  34 0
 6-311+G(2d,p)
 ****
 1  2  14  15  16  17  18  19  20  21  22  24  25  26  27 0
 3-21G
 ****
 35  36  37  38  39  40  41  42  43  44  45 0
 3-21G
 ****


