%nproc=1
%NoSave
%Mem=1900MB
#P OB98/GEN NMR

erre ene a

0 1
  C      519.167     129.555     -95.575
  O      518.133     128.924     -96.312
  P      518.083     129.191     -97.896
  C      516.770     127.226     -98.982
  O      516.726     128.544     -98.440
  C      515.352     126.657     -99.099
  O      514.793     126.452     -97.782
  C      514.368     127.559     -99.827
  O      514.580     127.527    -101.233
  C      513.041     126.957     -99.368
  O      512.757     125.763    -100.119
  C      513.349     126.597     -97.899
  N      509.320     128.437     -95.320
  C      509.440     127.425     -96.208
  N      510.539     127.010     -96.868
  C      511.604     127.753     -96.532
  C      511.636     128.830     -95.664
  C      510.427     129.174     -95.036
  N      510.314     130.211     -94.134
  N      512.905     129.367     -95.590
  C      513.633     128.617     -96.389
  N      512.895     127.623     -96.968
  O      519.218     128.220     -98.465
  O      518.315     130.615     -98.296
  H      512.352     126.042    -100.967
  H      519.663     128.618     -99.240
  H      508.523     126.867     -96.411
  H      514.692     128.751     -96.576
  H      512.893     125.649     -97.599
  H      512.193     127.634     -99.489
  H      514.454     128.589     -99.469
  H      515.424     125.685     -99.607
  H      517.357     126.578     -98.330
  H      509.383     130.477     -93.846
  H      511.099     130.841     -94.034
  H      517.261     127.259     -99.961
  P      513.740     128.558    -102.128
  C      515.544     129.261    -103.819
  O      514.411     128.435    -103.589
  O      514.293     129.965    -101.607
  O      512.263     128.376    -102.081
  H      515.264     129.993    -101.570
  H      515.936     129.046    -104.815
  H      516.327     129.054    -103.080
  H      515.257     130.316    -103.775
  H      519.080     129.292     -94.542
  H      519.084     130.616     -95.681
  H      520.117     129.233     -95.947

 3  4  5  6  7  8  9  10  11  12  22  25  29  30  31  32 0
 6-311+G(2d,p)
 ****
 33  36  37 0
 6-311+G(2d,p)
 ****
 1  2  13  14  15  16  17  18  19  20  21  23  24  26 0
 3-21G
 ****
 27  28  34  35  38  39  40  41  42  43  44  45  46  47  48 0
 3-21G
 ****


