%nproc=1
%NoSave
%Mem=1900MB
#P OB98/GEN NMR

erre ene a

0 1
  C       82.521      66.375      24.099
  O       82.096      66.918      25.337
  P       80.523      66.874      25.664
  C       80.199      64.314      25.960
  O       79.991      65.455      25.136
  C       78.923      63.931      26.713
  O       79.126      62.652      27.359
  C       78.502      64.941      27.782
  O       77.076      65.005      27.786
  C       78.970      64.301      29.075
  O       78.221      64.769      30.196
  C       78.791      62.809      28.753
  N       79.620      61.959      29.601
  C       79.393      62.028      30.979
  O       78.583      62.838      31.430
  N       80.124      61.219      31.811
  C       81.074      60.485      31.321
  N       81.768      59.698      32.186
  C       81.428      60.476      29.888
  C       80.654      61.211      29.092
  O       79.910      67.912      24.613
  O       80.172      67.219      27.073
  H       78.497      64.249      30.983
  H       79.125      68.358      24.983
  H       82.253      59.874      29.536
  H       80.824      61.247      28.024
  H       77.742      62.510      28.878
  H       80.028      64.533      29.245
  H       78.917      65.938      27.611
  H       78.119      63.800      25.978
  H       81.516      59.734      33.165
  H       80.974      64.544      26.697
  H       82.525      59.095      31.895
  H       80.550      63.481      25.344
  P       76.397      66.454      27.893
  C       77.137      66.839      25.466
  O       77.141      67.344      26.786
  O       77.053      67.013      29.247
  O       74.909      66.537      27.941
  H       76.668      67.881      29.464
  H       77.551      67.600      24.799
  H       76.118      66.608      25.147
  H       77.762      65.944      25.408
  H       83.583      66.470      24.014
  H       82.050      66.904      23.297
  H       82.251      65.341      24.051

 3  4  5  6  7  8  9  10  11  12  13  21  23  27  28  29  30  32 0
 6-311+G(2d,p)
 ****
 34  35 0
 6-311+G(2d,p)
 ****
 1  2  14  15  16  17  18  19  20  22  24  25  26 0
 3-21G
 ****
 31  33  36  37  38  39  40  41  42  43  44  45  46 0
 3-21G
 ****


