%nproc=1
%NoSave
%Mem=1900MB
#P OB98/GEN NMR

erre ene a

0 1
  C      -44.332     222.675    -276.700
  O      -45.539     222.847    -275.948
  P      -45.866     222.038    -274.597
  C      -45.868     224.019    -272.945
  O      -46.638     223.001    -273.567
  C      -46.744     224.971    -272.126
  O      -47.482     225.868    -273.016
  C      -47.778     224.277    -271.219
  O      -47.833     225.026    -270.004
  C      -49.061     224.425    -272.030
  O      -50.238     224.241    -271.268
  C      -48.858     225.840    -272.577
  N      -49.756     226.231    -273.662
  C      -50.642     227.291    -273.424
  O      -50.710     227.841    -272.323
  N      -51.464     227.697    -274.448
  C      -51.418     227.104    -275.597
  N      -52.254     227.566    -276.573
  C      -50.516     225.972    -275.884
  C      -49.722     225.595    -274.884
  O      -44.666     221.370    -273.997
  O      -46.965     220.947    -275.007
  H      -46.814     220.126    -274.498
  H      -50.308     224.978    -270.634
  H      -50.506     225.510    -276.861
  H      -49.007     224.785    -275.025
  H      -48.949     226.560    -271.753
  H      -49.058     223.678    -272.828
  H      -47.517     223.237    -270.976
  H      -46.083     225.609    -271.523
  H      -52.848     228.355    -276.341
  H      -45.355     224.591    -273.724
  H      -52.289     227.180    -277.506
  H      -45.111     223.550    -272.303
  P      -47.091     224.480    -268.695
  C      -45.676     226.630    -268.292
  O      -46.667     225.748    -267.805
  O      -45.677     224.011    -269.289
  O      -47.753     223.342    -267.980
  H      -45.300     223.313    -268.717
  H      -46.003     227.660    -268.125
  H      -45.473     226.493    -269.358
  H      -44.742     226.461    -267.731
  H      -44.348     223.321    -277.553
  H      -44.255     221.658    -277.024
  H      -43.491     222.918    -276.085

 3  4  5  6  7  8  9  10  11  12  13  24  27  28  29  30  32 0
 6-311+G(2d,p)
 ****
 34  35 0
 6-311+G(2d,p)
 ****
 1  2  14  15  16  17  18  19  20  21  22  23  25  26 0
 3-21G
 ****
 31  33  36  37  38  39  40  41  42  43  44  45  46 0
 3-21G
 ****


