%nproc=1
%NoSave
%Mem=1900MB
#P OB98/GEN NMR

erre ene a

0 1
  C      295.470     -53.731    -227.525
  O      295.119     -54.242    -226.249
  P      296.087     -55.341    -225.588
  C      298.136     -53.757    -225.317
  O      297.590     -54.904    -225.943
  C      299.542     -54.048    -224.789
  O      300.128     -52.807    -224.316
  C      299.598     -55.049    -223.628
  O      300.834     -55.765    -223.750
  C      299.651     -54.148    -222.405
  O      300.182     -54.805    -221.260
  C      300.502     -53.000    -222.936
  N      302.737     -49.182    -220.485
  C      303.290     -50.319    -221.042
  N      304.637     -50.421    -220.985
  N      302.591     -51.272    -221.602
  C      301.259     -51.022    -221.599
  C      300.589     -49.956    -221.046
  C      301.378     -48.894    -220.462
  O      300.937     -47.830    -220.036
  N      299.233     -50.100    -221.162
  C      299.086     -51.211    -221.854
  N      300.287     -51.783    -222.182
  O      295.840     -56.630    -226.505
  O      295.857     -55.617    -224.135
  H      299.734     -55.673    -221.178
  H      295.156     -57.210    -226.118
  H      303.330     -48.474    -220.081
  H      298.142     -51.644    -222.151
  H      301.578     -53.224    -222.902
  H      298.638     -53.804    -222.156
  H      305.241     -49.712    -220.596
  H      298.754     -55.742    -223.606
  H      305.071     -51.230    -221.414
  H      300.158     -54.402    -225.627
  H      297.499     -53.475    -224.472
  H      298.153     -52.923    -226.028
  P      300.940     -57.199    -223.045
  C      299.989     -58.489    -225.082
  O      299.843     -58.152    -223.715
  O      300.342     -56.923    -221.582
  O      302.325     -57.753    -222.956
  H      300.784     -57.502    -220.935
  H      299.438     -59.413    -225.275
  H      301.039     -58.641    -225.347
  H      299.570     -57.692    -225.700
  H      294.739     -53.014    -227.836
  H      295.506     -54.533    -228.233
  H      296.429     -53.261    -227.469

 3  4  5  6  7  8  9  10  11  12  23  26  30  31 0
 6-311+G(2d,p)
 ****
 33  35  36  37  38 0
 6-311+G(2d,p)
 ****
 1  2  13  14  15  16  17  18  19  20  21  22  24  25 0
 3-21G
 ****
 27  28  29  32  34  39  40  41  42  43  44  45  46  47  48  49 0
 3-21G
 ****


