%nproc=1
%NoSave
%Mem=1900MB
#P OB98/GEN NMR

erre ene a

0 1
  C      512.870     -66.744    -893.190
  O      514.022     -67.410    -893.650
  H      512.106     -67.486    -892.930
  H      512.473     -66.102    -893.990
  H      513.094     -66.139    -892.300
  P      515.335     -66.517    -893.890
  C      515.807     -64.590    -895.570
  O      515.160     -65.832    -895.330
  C      515.288     -63.959    -896.850
  O      513.843     -63.924    -896.850
  C      515.750     -62.523    -897.080
  O      517.063     -62.476    -897.650
  C      514.701     -62.046    -898.070
  O      514.989     -62.565    -899.380
  C      513.421     -62.700    -897.510
  N      509.512     -59.525    -896.890
  C      509.951     -60.176    -898.030
  N      509.271     -59.954    -899.160
  N      510.980     -60.987    -898.050
  C      511.593     -61.111    -896.840
  C      511.248     -60.519    -895.650
  C      510.099     -59.645    -895.640
  O      509.652     -59.051    -894.650
  N      512.086     -60.890    -894.650
  C      512.951     -61.709    -895.220
  N      512.703     -61.862    -896.570
  O      516.487     -67.600    -894.130
  O      515.686     -65.578    -892.770
  H      515.805     -62.124    -899.690
  H      517.328     -67.271    -893.730
  H      508.727     -58.907    -896.940
  H      513.782     -62.200    -894.720
  H      512.714     -62.974    -898.300
  H      514.660     -60.963    -898.150
  H      508.495     -59.299    -899.230
  H      515.685     -61.928    -896.160
  H      509.558     -60.446    -900.000
  H      515.586     -64.599    -897.700
  H      516.898     -64.754    -895.660
  H      515.619     -63.931    -894.720
  P      518.006     -61.258    -897.210
  C      517.224     -58.771    -897.150
  O      517.409     -59.951    -897.930
  O      519.358     -61.541    -898.050
  O      518.253     -61.147    -895.740
  H      520.118     -61.102    -897.600
  H      516.822     -57.995    -897.767
  H      518.165     -58.457    -896.749
  H      516.546     -58.976    -896.348

 6  7  8  9  10  11  12  13  14  15  26  29  33  34 0
 6-311+G(2d,p)
 ****
 36  38  39  40  41 0
 6-311+G(2d,p)
 ****
 1  2  3  4  5  16  17  18  19  20  21  22  23  24  25 0
 3-21G
 ****
 27  28  30  31  32  35  37  42  43  44  45  46  47 0
 3-21G
 ****
 48  49 0
 3-21G
 ****


