%nproc=1
%NoSave
%Mem=1900MB
#P OB98/GEN NMR

erre ene a

0 1
  C       13.772     -24.451     -17.181
  O       14.630     -25.548     -17.452
  P       15.867     -25.300     -18.442
  C       17.014     -27.239     -17.172
  O       16.734     -26.652     -18.435
  C       17.217     -28.744     -17.305
  O       15.926     -29.376     -17.520
  C       18.132     -29.156     -18.470
  O       19.024     -30.187     -18.027
  C       17.173     -29.777     -19.471
  O       17.822     -30.714     -20.323
  C       16.139     -30.386     -18.524
  N       14.003     -33.386     -21.979
  C       15.262     -33.446     -21.416
  N       16.086     -34.410     -21.884
  N       15.680     -32.635     -20.481
  C       14.740     -31.741     -20.088
  C       13.458     -31.588     -20.562
  C       13.031     -32.456     -21.639
  O       11.961     -32.394     -22.241
  N       12.799     -30.583     -19.903
  C       13.679     -30.124     -19.035
  N       14.889     -30.763     -19.142
  O       16.773     -24.262     -17.627
  O       15.511     -24.767     -19.786
  H       18.390     -30.203     -20.930
  H       16.926     -23.463     -18.167
  H       13.739     -34.025     -22.708
  H       13.498     -29.317     -18.337
  H       16.550     -31.277     -18.031
  H       16.737     -28.985     -20.090
  H       15.816     -35.090     -22.576
  H       18.706     -28.332     -18.904
  H       17.005     -34.484     -21.468
  H       17.606     -29.129     -16.354
  H       16.175     -27.049     -16.494
  H       17.914     -26.774     -16.757
  P       20.588     -29.922     -18.283
  C       21.094     -30.890     -15.919
  O       21.365     -30.924     -17.307
  O       20.831     -28.484     -17.627
  O       20.982     -29.970     -19.721
  H       21.602     -28.048     -18.036
  H       20.231     -30.261     -15.683
  H       21.969     -30.500     -15.395
  H       20.895     -31.907     -15.572
  H       12.998     -24.761     -16.511
  H       13.335     -24.105     -18.095
  H       14.336     -23.659     -16.733

 3  4  5  6  7  8  9  10  11  12  23  26  30  31  33  0
 6-311+G(2d,p)
 ****
 35  36  37  38 0
 6-311+G(2d,p)
 ****
 1  2  13  14  15  16  17  18  19  20  21  22  24  25  27  28  29 0
 3-21G
 ****
 32  34  39  40  41  42  43  44  45  46  47  48  49 0
 3-21G
 ****


