%nproc=1
%NoSave
%Mem=1900MB
#P OB98/GEN NMR

erre ene a

0 1
  C      243.679     513.050     370.075
  O      244.188     511.780     369.669
  P      243.688     510.466     370.434
  C      244.070     509.330     372.719
  O      244.542     510.296     371.785
  C      244.967     509.287     373.974
  O      246.239     508.628     373.649
  C      245.293     510.681     374.537
  O      245.035     510.798     375.932
  C      246.734     510.923     374.096
  O      247.403     511.860     374.926
  C      247.307     509.489     374.068
  N      248.468     509.408     373.176
  C      249.705     509.250     373.777
  O      249.872     509.258     374.997
  N      250.787     509.142     372.931
  C      250.752     509.242     371.576
  O      251.742     509.183     370.853
  C      249.416     509.469     370.972
  C      248.356     509.551     371.798
  O      243.585     509.222     369.594
  O      242.242     510.885     370.989
  H      246.942     512.720     374.865
  H      241.646     510.110     370.905
  H      251.687     509.007     373.376
  H      249.346     509.592     369.917
  H      247.362     509.727     371.406
  H      247.632     509.186     375.067
  H      246.723     511.317     373.080
  H      244.647     511.446     374.077
  H      244.458     508.673     374.734
  H      244.076     508.337     372.259
  H      243.023     509.530     372.975
  P      244.590     512.154     376.674
  C      245.598     514.531     376.930
  O      245.828     513.170     376.633
  O      243.950     511.982     378.011
  O      243.537     512.796     375.635
  H      242.801     513.180     376.135
  H      246.404     515.125     376.510
  H      245.573     514.657     378.022
  H      244.636     514.884     376.512
  H      244.110     513.818     369.467
  H      243.930     513.224     371.101
  H      242.615     513.061     369.961

 3  4  5  6  7  8  9  10  11  12  13  23  28  29  30  31  32 0
 6-311+G(2d,p)
 ****
 33  34 0
 6-311+G(2d,p)
 ****
 1  2  14  15  16  17  18  19  20  21  22  24  25  26  27 0
 3-21G
 ****
 35  36  37  38  39  40  41  42  43  44  45 0
 3-21G
 ****


