%nproc=1
%NoSave
%Mem=1900MB
#P OB98/GEN NMR

erre ene a

0 1
  C      205.811     220.115      50.190
  O      204.428     220.354      50.034
  H      206.361     220.927      49.706
  H      206.092     219.173      49.714
  H      206.081     220.094      51.249
  P      203.394     219.298      50.658
  C      201.733     220.785      49.338
  O      202.067     219.474      49.766
  C      200.483     220.753      48.465
  O      199.410     220.035      49.110
  C      199.888     222.121      48.146
  O      200.636     222.865      47.201
  C      198.534     221.698      47.608
  O      198.683     221.184      46.273
  C      198.158     220.577      48.604
  N      197.323     221.057      49.705
  C      195.939     220.955      49.531
  O      195.467     220.491      48.493
  N      195.111     221.414      50.527
  C      195.620     221.950      51.593
  N      194.755     222.395      52.544
  C      197.073     222.096      51.808
  C      197.857     221.631      50.837
  O      203.189     219.375      52.136
  O      203.927     217.874      50.161
  H      198.738     221.953      45.678
  H      203.326     217.181      50.529
  H      197.447     222.575      52.698
  H      198.936     221.708      50.920
  H      197.634     219.760      48.092
  H      197.814     222.517      47.560
  H      199.731     222.703      49.063
  H      200.736     220.202      47.550
  H      193.766     222.282      52.368
  H      202.587     221.193      48.788
  H      195.061     222.893      53.370
  H      201.533     221.422      50.205
  P      201.369     224.194      47.734
  C      203.448     223.638      46.255
  O      202.457     224.582      46.626
  O      202.236     223.659      48.965
  O      200.453     225.313      48.118
  H      201.780     223.832      49.811
  H      204.085     224.064      45.508
  H      202.976     222.761      45.863
  H      204.030     223.376      47.114

 6  7  8  9  10  11  12  13  14  15  16  26  30  31  32  33  35 0
 6-311+G(2d,p)
 ****
 37  38 0
 6-311+G(2d,p)
 ****
 1  2  3  4  5  17  18  19  20  21  22  23  24  25 0
 3-21G
 ****
 27  28  29  34  36  39  40  41  42  43  44  45  46 0
 3-21G
 ****


