%nproc=1
%NoSave
%Mem=1900MB
#P OB98/GEN NMR

erre ene a

0 1
  C     -897.701    -890.670    -379.553
  O     -898.652    -891.500    -378.929
  H     -897.401    -889.890    -378.847
  H     -898.145    -890.190    -380.440
  H     -896.817    -891.240    -379.846
  P     -899.098    -892.820    -379.738
  C     -899.196    -894.300    -377.577
  O     -899.884    -893.740    -378.686
  C     -900.155    -895.060    -376.661
  O     -900.987    -894.120    -375.963
  C     -901.072    -896.040    -377.426
  O     -901.294    -897.180    -376.608
  C     -902.380    -895.250    -377.559
  O     -903.495    -896.110    -377.739
  C     -902.389    -894.460    -376.242
  N     -903.237    -893.280    -376.313
  C     -904.340    -893.230    -375.423
  O     -904.557    -894.170    -374.664
  N     -905.174    -892.160    -375.481
  C     -904.968    -891.220    -376.365
  N     -905.868    -890.190    -376.368
  C     -903.861    -891.250    -377.338
  C     -903.035    -892.280    -377.236
  O     -897.706    -893.570    -379.944
  O     -899.848    -892.540    -381.005
  H     -903.433    -896.850    -377.072
  H     -897.148    -893.580    -379.143
  H     -903.753    -890.450    -378.057
  H     -902.180    -892.370    -377.897
  H     -902.730    -895.090    -375.404
  H     -902.331    -894.580    -378.396
  H     -900.660    -896.330    -378.390
  H     -899.575    -895.590    -375.902
  H     -906.637    -890.230    -375.705
  H     -898.694    -893.530    -376.986
  H     -905.855    -889.450    -377.049
  H     -898.420    -894.970    -377.963
  P     -901.371    -898.630    -377.293
  C     -898.899    -899.020    -377.999
  O     -899.962    -899.400    -377.127
  O     -901.944    -898.680    -378.656
  O     -902.303    -899.440    -376.250
  H     -902.917    -900.000    -376.774
  H     -898.031    -899.607    -377.780
  H     -898.674    -897.984    -377.857
  H     -899.194    -899.185    -379.014

 6  7  8  9  10  11  12  13  14  15  16  26  30  31  32  33  35 0
 6-311+G(2d,p)
 ****
 37  38 0
 6-311+G(2d,p)
 ****
 1  2  3  4  5  17  18  19  20  21  22  23  24  25 0
 3-21G
 ****
 27  28  29  34  36  39  40  41  42  43  44  45  46 0
 3-21G
 ****


