%nproc=1
%NoSave
%Mem=1900MB
#P OB98/GEN NMR

erre ene a

0 1
  C     -893.118    -892.900    -892.850
  O     -892.608    -894.170    -892.440
  H     -893.308    -892.980    -893.920
  H     -892.328    -892.130    -892.680
  H     -894.018    -892.640    -892.350
  P     -892.538    -894.480    -890.850
  C     -894.018    -896.570    -890.570
  O     -893.898    -895.150    -890.420
  C     -895.038    -896.950    -891.640
  O     -894.598    -896.350    -893.000
  C     -895.158    -898.520    -891.840
  O     -896.468    -898.920    -892.320
  C     -894.078    -898.790    -892.950
  O     -894.348    -900.000    -893.700
  C     -894.228    -897.460    -893.830
  N     -891.988    -897.070    -898.380
  C     -893.218    -897.610    -898.050
  N     -893.968    -898.140    -899.100
  N     -893.708    -897.710    -896.830
  C     -892.828    -897.200    -895.960
  C     -891.528    -896.640    -896.120
  C     -891.048    -896.560    -897.470
  O     -889.988    -896.090    -897.780
  N     -890.958    -896.270    -894.910
  C     -891.868    -896.650    -894.000
  N     -893.018    -897.160    -894.570
  O     -892.638    -893.020    -890.190
  O     -891.278    -895.190    -890.380
  H     -893.738    -899.960    -894.470
  H     -892.238    -893.030    -889.300
  H     -891.668    -897.010    -899.340
  H     -891.708    -896.470    -892.920
  H     -895.028    -897.670    -894.560
  H     -893.088    -898.880    -892.500
  H     -893.528    -898.260    -900.000
  H     -894.888    -899.080    -890.960
  H     -894.698    -898.800    -898.830
  H     -896.028    -896.480    -891.410
  H     -894.328    -897.020    -889.580
  H     -892.998    -897.040    -890.820
  P     -897.768    -898.520    -891.430
  C     -899.048    -896.550    -892.640
  O     -898.148    -896.980    -891.620
  O     -897.208    -898.630    -889.880
  O     -898.858    -899.490    -891.620
  H     -897.638    -899.350    -889.450
  H     -899.162    -895.487    -892.590
  H     -900.000    -897.018    -892.496
  H     -898.658    -896.823    -893.598

 6  7  8  9  10  11  12  13  14  15  26  29  33  34 0
 6-311+G(2d,p)
 ****
 36  38  39  40  41 0
 6-311+G(2d,p)
 ****
 1  2  3  4  5  16  17  18  19  20  21  22  23  24  25 0
 3-21G
 ****
 27  28  30  31  32  35  37  42  43  44  45  46  47 0
 3-21G
 ****
 48  49 0
 3-21G
 ****


