%nproc=1
%NoSave
%Mem=1900MB
#P OB98/GEN NMR

erre ene a

0 1
  C      -51.597      34.268     -55.162
  O      -52.375      34.551     -54.020
  P      -53.762      33.799     -53.749
  C      -56.215      34.161     -54.452
  O      -54.853      34.480     -54.715
  C      -57.036      34.219     -55.746
  O      -56.778      33.005     -56.517
  C      -58.554      34.304     -55.489
  O      -59.208      35.379     -56.163
  C      -59.035      32.910     -55.859
  O      -60.415      32.840     -56.163
  C      -58.059      32.533     -56.979
  N      -58.057      31.099     -57.261
  C      -58.702      30.678     -58.419
  O      -59.259      31.429     -59.216
  N      -58.752      29.326     -58.621
  C      -58.334      28.371     -57.744
  O      -58.500      27.174     -57.945
  C      -57.696      28.875     -56.517
  C      -57.565      30.191     -56.342
  O      -54.176      33.715     -52.319
  O      -53.544      32.374     -54.449
  H      -60.658      31.898     -56.239
  H      -53.354      32.411     -55.403
  H      -59.217      29.008     -59.457
  H      -57.364      28.139     -55.799
  H      -57.099      30.593     -55.449
  H      -58.287      33.065     -57.904
  H      -58.866      32.257     -54.994
  H      -58.763      34.491     -54.429
  H      -56.684      35.078     -56.324
  H      -56.615      34.886     -53.740
  H      -56.280      33.172     -53.985
  P      -60.437      36.220     -55.577
  C      -63.014      35.885     -55.678
  O      -61.736      35.287     -55.598
  O      -60.623      37.575     -56.175
  O      -60.098      36.336     -54.016
  H      -60.483      37.159     -53.659
  H      -63.738      35.227     -55.189
  H      -63.295      35.995     -56.728
  H      -63.033      36.861     -55.187
  H      -50.716      34.875     -55.153
  H      -52.166      34.479     -56.043
  H      -51.319      33.235     -55.157

 3  4  5  6  7  8  9  10  11  12  13  23  28  29  30  31  32 0
 6-311+G(2d,p)
 ****
 33  34 0
 6-311+G(2d,p)
 ****
 1  2  14  15  16  17  18  19  20  21  22  24  25  26  27 0
 3-21G
 ****
 35  36  37  38  39  40  41  42  43  44  45 0
 3-21G
 ****


