%nproc=1
%NoSave
%Mem=1900MB
#P OB98/GEN NMR

erre ene a

0 1
  C     -106.847     221.901     -50.755
  O     -107.246     221.427     -52.030
  P     -108.521     220.466     -52.182
  C     -108.872     217.920     -52.129
  O     -108.049     219.004     -51.716
  C     -108.330     216.597     -51.593
  O     -107.109     216.272     -52.300
  C     -108.000     216.635     -50.105
  O     -108.310     215.363     -49.530
  C     -106.494     216.824     -50.059
  O     -105.941     216.303     -48.838
  C     -106.059     216.094     -51.332
  N     -100.986     216.548     -50.690
  C     -101.931     215.922     -49.956
  N     -103.263     215.863     -50.171
  C     -103.585     216.496     -51.311
  C     -102.730     217.175     -52.166
  C     -101.369     217.192     -51.817
  N     -100.405     217.821     -52.575
  N     -103.431     217.727     -53.221
  C     -104.679     217.367     -53.015
  N     -104.822     216.614     -51.880
  O     -109.186     220.507     -53.514
  O     -109.507     220.919     -51.010
  H     -106.344     216.809     -48.102
  H     -110.434     220.887     -51.315
  H     -101.569     215.401     -49.074
  H     -105.514     217.634     -53.645
  H     -105.936     215.017     -51.158
  H     -106.256     217.893     -50.106
  H     -108.535     217.427     -49.570
  H     -109.057     215.806     -51.810
  H     -108.879     217.889     -53.222
  H      -99.444     217.676     -52.312
  H     -100.662     218.149     -53.495
  H     -109.897     218.088     -51.780
  P     -108.012     215.212     -47.954
  C     -105.934     214.372     -46.631
  O     -106.480     214.755     -47.872
  O     -109.020     214.344     -47.274
  O     -108.023     216.743     -47.488
  H     -107.805     217.347     -48.231
  H     -104.876     214.135     -46.771
  H     -106.441     213.479     -46.255
  H     -106.022     215.185     -45.905
  H     -105.983     222.523     -50.860
  H     -106.614     221.070     -50.123
  H     -107.643     222.468     -50.320

 3  4  5  6  7  8  9  10  11  12  22  25  29  30  31  32 0
 6-311+G(2d,p)
 ****
 33  36  37 0
 6-311+G(2d,p)
 ****
 1  2  13  14  15  16  17  18  19  20  21  23  24  26 0
 3-21G
 ****
 27  28  34  35  38  39  40  41  42  43  44  45  46  47  48 0
 3-21G
 ****


