%nproc=1
%NoSave
%Mem=1900MB
#P OB98/GEN NMR

erre ene a

0 1
  C      928.976      -0.611    1265.233
  O      929.067       0.567    1266.007
  H      927.923      -0.880    1265.116
  H      929.489      -1.437    1265.746
  H      929.416      -0.450    1264.246
  P      930.536       1.074    1266.393
  C      930.921       3.299    1265.103
  O      931.097       1.884    1265.128
  C      932.283       3.984    1265.122
  O      933.126       3.446    1264.063
  C      932.241       5.480    1264.888
  O      931.846       6.207    1266.038
  C      933.674       5.765    1264.482
  O      934.523       5.946    1265.620
  C      934.060       4.491    1263.697
  N      934.083       4.722    1262.257
  C      935.236       5.298    1261.756
  O      936.194       5.609    1262.467
  N      935.237       5.563    1260.409
  C      934.203       5.340    1259.551
  O      934.257       5.654    1258.365
  C      932.999       4.734    1260.136
  C      932.975       4.465    1261.440
  O      931.402      -0.272    1266.393
  O      930.630       1.798    1267.693
  H      931.602      -0.534    1267.311
  H      935.432       5.930    1265.276
  H      936.074       5.981    1260.030
  H      932.157       4.559    1259.486
  H      932.098       4.027    1261.901
  H      935.048       4.134    1264.001
  H      933.738       6.665    1263.876
  H      931.573       5.709    1264.036
  H      932.771       3.765    1266.090
  H      930.348       3.620    1265.986
  H      930.354       3.571    1264.205
  P      930.882       7.474    1265.840
  C      928.804       6.085    1266.698
  O      929.400       6.862    1265.669
  O      931.292       7.956    1264.365
  O      931.030       8.514    1266.908
  H      931.647       7.204    1263.828
  H      927.827       5.776    1266.391
  H      928.728       6.672    1267.590
  H      929.408       5.222    1266.889

 6  7  8  9  10  11  12  13  14  15  16  27  31  32  33  34  35 0
 6-311+G(2d,p)
 ****
 36  37 0
 6-311+G(2d,p)
 ****
 1  2  3  4  5  17  18  19  20  21  22  23  24  25 0
 3-21G
 ****
 26  28  29  30  38  39  40  41  42  43  44  45 0
 3-21G
 ****


