%nproc=1
%NoSave
%Mem=1900MB
#P OB98/GEN NMR

erre ene a

0 1
  C     -794.484     286.574    -524.361
  O     -795.521     285.624    -524.238
  H     -794.805     287.349    -525.063
  H     -793.576     286.108    -524.749
  H     -794.273     287.046    -523.398
  P     -795.297     284.376    -523.260
  C     -797.385     283.428    -524.477
  O     -796.074     283.165    -523.981
  C     -797.748     282.420    -525.564
  O     -796.861     282.528    -526.697
  C     -797.654     280.954    -525.140
  O     -798.715     280.547    -524.276
  C     -797.729     280.284    -526.499
  O     -799.092     280.317    -526.988
  C     -796.811     281.217    -527.332
  N     -795.436     280.727    -527.415
  C     -795.149     279.845    -528.459
  O     -796.015     279.511    -529.262
  N     -793.859     279.350    -528.570
  C     -792.968     279.674    -527.690
  N     -791.723     279.144    -527.834
  C     -793.239     280.585    -526.548
  C     -794.479     281.068    -526.476
  O     -795.644     284.589    -521.818
  O     -793.769     283.951    -523.491
  H     -799.065     279.958    -527.896
  H     -793.572     283.175    -522.900
  H     -792.465     280.808    -525.822
  H     -794.759     281.738    -525.670
  H     -797.211     281.344    -528.357
  H     -797.411     279.250    -526.482
  H     -796.677     280.742    -524.692
  H     -798.761     282.677    -525.922
  H     -791.563     278.528    -528.613
  H     -797.400     284.453    -524.865
  H     -790.990     279.274    -527.144
  H     -798.117     283.349    -523.671
  P     -798.508     279.152    -523.497
  C     -801.081     278.868    -523.130
  O     -799.880     278.343    -523.677
  O     -798.497     279.598    -521.971
  O     -797.279     278.377    -523.899
  H     -797.576     279.659    -521.640
  H     -801.891     278.202    -523.344
  H     -801.282     279.825    -523.564
  H     -800.975     278.972    -522.070

 6  7  8  9  10  11  12  13  14  15  16  26  30  31  32  33  35 0
 6-311+G(2d,p)
 ****
 37  38 0
 6-311+G(2d,p)
 ****
 1  2  3  4  5  17  18  19  20  21  22  23  24  25 0
 3-21G
 ****
 27  28  29  34  36  39  40  41  42  43  44  45  46 0
 3-21G
 ****


