%nproc=1
%NoSave
%Mem=1900MB
#P OB98/GEN NMR

erre ene a

0 1
  C      487.370    -419.018    -145.320
  O      486.592    -418.513    -146.406
  P      486.275    -416.946    -146.484
  C      484.142    -417.212    -145.048
  O      485.372    -416.521    -145.233
  C      483.393    -416.632    -143.842
  O      484.197    -416.699    -142.639
  C      483.058    -415.156    -144.008
  O      482.084    -414.827    -144.977
  C      482.797    -414.727    -142.573
  O      481.463    -415.031    -142.162
  C      483.814    -415.590    -141.789
  N      484.987    -414.828    -141.356
  C      484.786    -413.966    -140.279
  O      483.700    -413.803    -139.739
  N      485.889    -413.266    -139.868
  C      487.130    -413.311    -140.432
  O      488.078    -412.642    -140.034
  C      487.274    -414.222    -141.583
  C      486.210    -414.923    -141.987
  O      485.800    -416.450    -147.813
  O      487.698    -416.287    -146.126
  H      481.378    -416.000    -142.141
  H      487.828    -415.516    -146.721
  H      485.765    -412.640    -139.082
  H      488.243    -414.281    -142.064
  H      486.298    -415.601    -142.834
  H      483.348    -416.021    -140.905
  H      482.930    -413.642    -142.445
  H      483.975    -414.638    -144.330
  H      482.493    -417.229    -143.671
  H      484.333    -418.274    -144.898
  H      483.547    -417.129    -145.960
  P      482.440    -414.215    -146.409
  C      482.242    -411.645    -146.112
  O      483.096    -412.764    -146.196
  O      481.413    -414.349    -147.486
  O      483.722    -415.096    -146.820
  H      483.720    -415.218    -147.790
  H      482.863    -410.746    -145.985
  H      481.582    -411.739    -145.249
  H      481.659    -411.539    -147.032
  H      487.484    -420.077    -145.425
  H      486.875    -418.802    -144.396
  H      488.334    -418.553    -145.325

 3  4  5  6  7  8  9  10  11  12  13  23  28  29  30  31  32 0
 6-311+G(2d,p)
 ****
 33  34 0
 6-311+G(2d,p)
 ****
 1  2  14  15  16  17  18  19  20  21  22  24  25  26  27 0
 3-21G
 ****
 35  36  37  38  39  40  41  42  43  44  45 0
 3-21G
 ****


