%nproc=1
%NoSave
%Mem=1900MB
#P OB98/GEN NMR

erre ene a

0 1
  C      465.392      99.394      82.760
  O      465.754      98.190      82.123
  H      466.287     100.010      82.877
  H      464.984      99.176      83.751
  H      464.656      99.952      82.176
  P      464.611      97.316      81.424
  C      464.247      98.695      79.273
  O      464.751      97.489      79.833
  C      465.091      99.164      78.087
  O      466.358      99.667      78.562
  C      465.405      98.030      77.106
  O      464.417      97.820      76.113
  C      466.715      98.507      76.484
  O      466.475      99.344      75.340
  C      467.372      99.310      77.610
  N      471.672      96.589      77.113
  C      470.777      96.983      76.136
  N      471.051      96.564      74.881
  N      469.714      97.702      76.380
  C      469.520      97.959      77.694
  C      470.326      97.605      78.754
  C      471.542      96.873      78.465
  O      472.372      96.515      79.293
  N      469.787      98.006      79.952
  C      468.620      98.521      79.621
  N      468.450      98.588      78.258
  O      463.269      98.135      81.743
  O      464.493      95.903      81.907
  H      467.337      99.535      74.920
  H      462.520      97.517      81.819
  H      472.488      96.061      76.861
  H      467.885      98.902      80.321
  H      467.799     100.249      77.234
  H      467.310      97.660      76.133
  H      471.806      95.941      74.650
  H      465.603      97.098      77.643
  H      470.325      96.671      74.169
  H      464.581      99.996      77.587
  H      464.273      99.442      80.067
  H      463.203      98.569      78.973
  P      463.899      96.348      75.768
  C      462.340      95.801      77.807
  O      462.470      96.144      76.446
  O      464.859      95.413      76.641
  O      463.925      95.982      74.320
  H      465.582      95.054      76.093
  H      461.303      95.714      78.055
  H      462.789      96.562      78.411
  H      462.830      94.867      77.988

 6  7  8  9  10  11  12  13  14  15  26  29  33  34 0
 6-311+G(2d,p)
 ****
 36  38  39  40  41 0
 6-311+G(2d,p)
 ****
 1  2  3  4  5  16  17  18  19  20  21  22  23  24  25 0
 3-21G
 ****
 27  28  30  31  32  35  37  42  43  44  45  46  47 0
 3-21G
 ****
 48  49 0
 3-21G
 ****


