%nproc=1
%NoSave
%Mem=1900MB
#P OB98/GEN NMR

erre ene a

0 1
  C       -2.465    -459.925    -267.631
  O       -1.786    -461.158    -267.683
  H       -3.516    -460.097    -267.881
  H       -2.049    -459.228    -268.364
  H       -2.410    -459.494    -266.627
  P       -0.206    -461.201    -267.398
  C        1.023    -461.584    -269.621
  O        0.480    -460.613    -268.733
  C        1.788    -460.914    -270.765
  O        0.941    -459.919    -271.399
  C        3.078    -460.202    -270.320
  O        4.151    -460.549    -271.202
  C        2.748    -458.724    -270.481
  O        3.900    -457.910    -270.664
  C        1.777    -458.775    -271.667
  N        1.010    -457.544    -271.799
  C        1.595    -456.537    -272.578
  O        2.696    -456.719    -273.109
  N        0.953    -455.329    -272.690
  C       -0.153    -455.128    -272.040
  N       -0.725    -453.904    -272.178
  C       -0.790    -456.154    -271.184
  C       -0.165    -457.329    -271.118
  O        0.317    -462.529    -266.954
  O        0.051    -460.037    -266.332
  H        4.648    -458.306    -270.166
  H        0.892    -460.220    -265.853
  H       -1.710    -455.933    -270.666
  H       -0.557    -458.142    -270.516
  H        2.311    -458.960    -272.609
  H        2.218    -458.374    -269.582
  H        3.365    -460.437    -269.294
  H        2.000    -461.667    -271.534
  H       -0.251    -453.225    -272.759
  H        0.209    -462.196    -270.011
  H       -1.571    -453.622    -271.698
  H        1.719    -462.217    -269.059
  P        5.123    -461.726    -270.699
  C        7.188    -460.235    -270.157
  O        6.168    -461.093    -269.653
  O        6.016    -462.041    -271.986
  O        4.397    -462.935    -270.216
  H        5.776    -462.914    -272.354
  H        7.800    -459.895    -269.348
  H        6.739    -459.394    -270.642
  H        7.791    -460.772    -270.859

 6  7  8  9  10  11  12  13  14  15  16  26  30  31  32  33  35 0
 6-311+G(2d,p)
 ****
 37  38 0
 6-311+G(2d,p)
 ****
 1  2  3  4  5  17  18  19  20  21  22  23  24  25 0
 3-21G
 ****
 27  28  29  34  36  39  40  41  42  43  44  45  46 0
 3-21G
 ****


