%nproc=1
%NoSave
%Mem=1900MB
#P OB98/GEN NMR

erre ene a

0 1
  C     1246.488    -318.662    -897.760
  O     1245.611    -318.430    -896.660
  P     1244.041    -318.194    -896.810
  C     1244.247    -315.673    -897.290
  O     1243.786    -316.918    -897.780
  C     1243.858    -314.541    -898.260
  O     1242.476    -314.619    -898.650
  C     1244.016    -313.111    -897.670
  O     1245.368    -312.729    -897.630
  C     1243.149    -312.336    -898.640
  O     1243.868    -311.987    -899.840
  C     1241.999    -313.318    -898.940
  N     1240.804    -313.017    -898.190
  C     1240.113    -311.814    -898.510
  O     1240.612    -311.038    -899.350
  N     1238.933    -311.496    -897.880
  C     1238.511    -312.305    -896.930
  N     1237.341    -311.949    -896.340
  C     1239.223    -313.532    -896.500
  C     1240.357    -313.810    -897.160
  O     1243.292    -318.149    -895.520
  O     1243.516    -319.444    -897.700
  H     1244.583    -311.369    -899.540
  H     1242.601    -319.648    -897.450
  H     1238.837    -314.124    -895.670
  H     1240.937    -314.709    -896.920
  H     1241.771    -313.309    -900.000
  H     1242.800    -311.383    -898.190
  H     1243.570    -313.131    -896.660
  H     1244.469    -314.620    -899.180
  H     1236.887    -311.098    -896.650
  H     1245.339    -315.708    -897.230
  H     1236.928    -312.484    -895.590
  H     1243.836    -315.490    -896.320
  P     1246.118    -312.611    -896.200
  C     1245.661    -310.109    -895.870
  O     1245.410    -311.437    -895.420
  O     1247.621    -312.532    -896.270
  O     1245.663    -313.934    -895.410
  H     1246.360    -314.190    -894.840
  H     1244.834    -309.463    -895.530
  H     1245.691    -310.088    -896.970
  H     1246.586    -309.733    -895.450
  H     1247.487    -318.790    -897.399
  H     1246.454    -317.825    -898.426
  H     1246.181    -319.545    -898.281

 3  4  5  6  7  8  9  10  11  12  13  23  27  28  29  30  32 0
 6-311+G(2d,p)
 ****
 34  35 0
 6-311+G(2d,p)
 ****
 1  2  14  15  16  17  18  19  20  21  22  24  25  26 0
 3-21G
 ****
 31  33  36  37  38  39  40  41  42  43  44  45  46 0
 3-21G
 ****


