%nproc=1
%NoSave
%Mem=1900MB
#P OB98/GEN NMR

erre ene a

0 1
  C     1226.502    2122.676    -899.080
  O     1227.534    2122.618    -898.110
  P     1228.923    2121.937    -898.530
  C     1230.087    2123.009    -896.440
  O     1229.791    2121.837    -897.180
  C     1230.179    2122.708    -894.970
  O     1230.794    2121.409    -894.750
  C     1230.989    2123.692    -894.180
  O     1230.295    2124.913    -893.920
  C     1231.314    2122.922    -892.910
  O     1230.253    2123.039    -891.930
  C     1231.378    2121.465    -893.440
  N     1232.745    2120.934    -893.470
  C     1233.293    2120.618    -892.200
  O     1232.646    2120.780    -891.170
  N     1234.582    2120.163    -892.160
  C     1235.263    2120.031    -893.260
  N     1236.542    2119.546    -893.150
  C     1234.730    2120.371    -894.580
  C     1233.495    2120.804    -894.600
  O     1229.669    2123.119    -899.350
  O     1228.779    2120.672    -899.340
  H     1230.590    2122.623    -891.120
  H     1230.296    2122.749    -900.000
  H     1235.352    2120.260    -895.500
  H     1233.015    2121.108    -895.540
  H     1230.751    2120.803    -892.800
  H     1232.229    2123.233    -892.430
  H     1231.942    2123.922    -894.700
  H     1229.162    2122.654    -894.570
  H     1236.897    2119.352    -892.190
  H     1229.255    2123.761    -896.610
  H     1237.133    2119.371    -893.940
  H     1231.033    2123.438    -896.830
  P     1231.102    2126.266    -893.770
  C     1228.707    2127.160    -893.830
  O     1230.015    2127.351    -893.340
  O     1231.413    2126.669    -895.270
  O     1232.338    2126.222    -892.930
  H     1232.009    2127.441    -895.330
  H     1228.026    2127.872    -893.350
  H     1228.375    2126.146    -893.590
  H     1228.651    2127.350    -894.900
  H     1225.643    2123.154    -898.658
  H     1226.244    2121.684    -899.386
  H     1226.840    2123.234    -899.928

 3  4  5  6  7  8  9  10  11  12  13  21  23  27  28  29  30  32 0
 6-311+G(2d,p)
 ****
 34  35 0
 6-311+G(2d,p)
 ****
 1  2  14  15  16  17  18  19  20  22  24  25  26 0
 3-21G
 ****
 31  33  36  37  38  39  40  41  42  43  44  45  46 0
 3-21G
 ****


