%nproc=1
%NoSave
%Mem=1900MB
#P OB98/GEN NMR

erre ene a

0 1
  C      -97.199    -160.889    -353.260
  O      -97.821    -161.802    -352.372
  P      -98.668    -161.212    -351.146
  C     -100.072    -159.682    -352.710
  O      -99.218    -159.764    -351.577
  C     -101.171    -158.643    -352.486
  O     -101.985    -158.533    -353.684
  C     -102.111    -158.987    -351.325
  O     -102.542    -157.771    -350.690
  C     -103.319    -159.588    -352.013
  O     -104.491    -159.481    -351.205
  C     -103.360    -158.757    -353.298
  N     -107.946    -159.687    -355.200
  C     -107.559    -158.751    -354.263
  N     -108.547    -158.024    -353.695
  N     -106.316    -158.540    -353.918
  C     -105.437    -159.347    -354.564
  C     -105.700    -160.300    -355.524
  C     -107.080    -160.528    -355.886
  O     -107.491    -161.360    -356.688
  N     -104.547    -160.889    -355.974
  C     -103.590    -160.327    -355.263
  N     -104.083    -159.413    -354.368
  O      -97.540    -160.877    -350.062
  O      -99.689    -162.143    -350.586
  H     -105.199    -159.967    -351.668
  H      -97.559    -161.543    -349.348
  H     -108.921    -159.817    -355.425
  H     -102.535    -160.561    -355.334
  H     -103.819    -157.778    -353.130
  H     -103.139    -160.648    -352.225
  H     -109.528    -158.185    -353.867
  H     -101.680    -159.656    -350.573
  H     -108.293    -157.364    -352.971
  H     -100.703    -157.664    -352.329
  H     -100.531    -160.656    -352.879
  H      -99.480    -159.422    -353.595
  P     -102.422    -157.737    -349.088
  C      -99.962    -156.889    -349.135
  O     -100.864    -157.911    -348.764
  O     -103.062    -159.132    -348.638
  O     -103.095    -156.567    -348.448
  H     -103.410    -159.067    -347.729
  H      -99.505    -156.472    -348.234
  H     -100.452    -156.084    -349.692
  H      -99.174    -157.320    -349.761
  H      -96.675    -161.431    -354.020
  H      -96.508    -160.278    -352.717
  H      -97.944    -160.269    -353.713

 3  4  5  6  7  8  9  10  11  12  23  26  30  31 0
 6-311+G(2d,p)
 ****
 33  35  36  37  38 0
 6-311+G(2d,p)
 ****
 1  2  13  14  15  16  17  18  19  20  21  22  24  25 0
 3-21G
 ****
 27  28  29  32  34  39  40  41  42  43  44  45  46  47  48  49 0
 3-21G
 ****


