%nproc=1
%NoSave
%Mem=1900MB
#P OB98/GEN NMR

erre ene a

0 1
  C      338.836    -900.891    -186.830
  O      340.112    -901.472    -186.586
  P      341.256    -900.568    -185.904
  C      340.508    -901.005    -183.403
  O      340.792    -900.100    -184.460
  C      340.897    -900.368    -182.067
  O      342.314    -900.021    -182.065
  C      340.132    -899.092    -181.745
  O      338.900    -899.360    -181.104
  C      341.113    -898.328    -180.881
  O      341.113    -898.859    -179.540
  C      342.449    -898.659    -181.587
  N      342.874    -897.793    -182.728
  C      342.856    -896.413    -182.613
  O      342.513    -895.815    -181.579
  N      343.279    -895.694    -183.688
  C      343.850    -896.206    -184.809
  O      344.270    -895.516    -185.743
  C      343.996    -897.663    -184.853
  C      343.478    -898.384    -183.828
  O      341.220    -899.203    -186.768
  O      342.619    -901.176    -185.898
  H      341.648    -898.257    -178.995
  H      342.055    -899.086    -187.253
  H      343.213    -894.687    -183.640
  H      344.488    -898.123    -185.704
  H      343.571    -899.469    -183.845
  H      343.287    -898.647    -180.878
  H      340.841    -897.279    -180.796
  H      339.975    -898.509    -182.677
  H      340.749    -901.108    -181.273
  H      341.048    -901.944    -183.543
  H      339.444    -901.251    -183.401
  P      337.523    -898.934    -181.792
  C      336.442    -901.246    -181.546
  O      336.926    -900.290    -182.447
  O      337.586    -897.752    -182.729
  O      336.530    -898.701    -180.568
  H      336.499    -897.734    -180.341
  H      335.926    -902.043    -182.097
  H      335.730    -900.794    -180.842
  H      337.289    -901.694    -180.988
  H      338.194    -901.617    -187.284
  H      338.945    -900.052    -187.486
  H      338.409    -900.567    -185.904

 3  4  5  6  7  8  9  10  11  12  13  23  28  29  30  31  32 0
 6-311+G(2d,p)
 ****
 33  34 0
 6-311+G(2d,p)
 ****
 1  2  14  15  16  17  18  19  20  21  22  24  25  26  27 0
 3-21G
 ****
 35  36  37  38  39  40  41  42  43  44  45 0
 3-21G
 ****


