%nproc=1
%NoSave
%Mem=1900MB
#P OB98/GEN NMR

erre ene a

0 1
  C      111.007     183.040     116.232
  O      111.070     181.959     117.148
  P      112.034     180.708     116.872
  C      114.586     180.449     116.698
  O      113.475     181.315     116.503
  C      115.604     180.616     115.573
  O      115.048     180.064     114.355
  C      115.964     182.071     115.292
  O      117.347     182.144     114.932
  C      115.135     182.435     114.072
  O      115.748     183.499     113.325
  C      115.063     181.090     113.344
  N      112.624     182.666     109.112
  C      113.836     182.980     109.619
  N      114.410     182.543     110.761
  C      113.618     181.649     111.374
  C      112.359     181.226     110.976
  C      111.856     181.779     109.784
  N      110.624     181.447     109.263
  N      111.837     180.322     111.880
  C      112.774     180.187     112.793
  N      113.872     180.960     112.526
  O      111.512     179.714     115.894
  O      112.273     180.059     118.311
  H      115.128     183.739     112.605
  H      112.296     179.085     118.244
  H      114.423     183.679     109.030
  H      112.703     179.557     113.666
  H      115.941     180.927     112.708
  H      114.143     182.775     114.390
  H      115.763     182.731     116.143
  H      116.499     180.034     115.819
  H      114.222     179.417     116.703
  H      110.401     181.798     108.345
  H      110.131     180.663     109.667
  H      115.045     180.659     117.669
  P      118.068     183.558     115.200
  C      118.128     185.145     117.263
  O      117.583     183.991     116.663
  O      117.833     184.526     114.088
  O      119.592     183.100     115.379
  H      119.655     182.166     115.675
  H      117.706     185.251     118.264
  H      117.867     186.033     116.680
  H      119.216     185.059     117.343
  H      110.312     183.771     116.590
  H      110.685     182.680     115.277
  H      111.976     183.485     116.138

 3  4  5  6  7  8  9  10  11  12  22  25  29  30  31  32 0
 6-311+G(2d,p)
 ****
 33  36  37 0
 6-311+G(2d,p)
 ****
 1  2  13  14  15  16  17  18  19  20  21  23  24  26 0
 3-21G
 ****
 27  28  34  35  38  39  40  41  42  43  44  45  46  47  48 0
 3-21G
 ****


