%nproc=1
%NoSave
%Mem=1900MB
#P OB98/GEN NMR

erre ene a

0 1
  C        4.724    -204.062    -137.344
  O        3.474    -204.353    -136.750
  H        5.518    -204.364    -136.657
  H        4.810    -202.988    -137.534
  H        4.834    -204.616    -138.281
  P        2.173    -203.924    -137.585
  C        1.245    -201.638    -138.381
  O        2.045    -202.331    -137.432
  C        1.132    -200.162    -138.008
  O        2.441    -199.564    -137.887
  C        0.353    -199.319    -139.009
  O       -1.042    -199.414    -138.777
  C        0.904    -197.929    -138.717
  O        0.276    -197.358    -137.550
  C        2.387    -198.224    -138.447
  N        4.712    -195.064    -141.627
  C        3.843    -194.803    -140.586
  N        3.519    -193.508    -140.379
  N        3.322    -195.727    -139.825
  C        3.686    -196.983    -140.184
  C        4.536    -197.371    -141.192
  C        5.149    -196.332    -141.992
  O        5.988    -196.495    -142.874
  N        4.671    -198.736    -141.229
  C        3.876    -199.169    -140.269
  N        3.251    -198.143    -139.609
  O        0.960    -204.477    -136.696
  O        2.102    -204.450    -138.978
  H        0.559    -196.431    -137.458
  H        0.261    -204.810    -137.293
  H        5.106    -194.311    -142.160
  H        3.727    -200.208    -140.008
  H        2.808    -197.543    -137.698
  H        0.711    -197.239    -139.540
  H        3.646    -192.803    -141.089
  H        0.603    -199.598    -140.039
  H        2.824    -193.325    -139.665
  H        0.665    -200.110    -137.014
  H        0.248    -202.087    -138.396
  H        1.698    -201.734    -139.372
  P       -2.037    -198.862    -139.904
  C       -3.018    -196.505    -140.386
  O       -1.900    -197.262    -139.942
  O       -3.482    -199.098    -139.252
  O       -1.928    -199.546    -141.222
  H       -3.916    -199.858    -139.681
  H       -2.778    -195.463    -140.356
  H       -3.855    -196.696    -139.747
  H       -3.263    -196.786    -141.389

 6  7  8  9  10  11  12  13  14  15  26  29  33  34 0
 6-311+G(2d,p)
 ****
 36  38  39  40  41 0
 6-311+G(2d,p)
 ****
 1  2  3  4  5  16  17  18  19  20  21  22  23  24  25 0
 3-21G
 ****
 27  28  30  31  32  35  37  42  43  44  45  46  47 0
 3-21G
 ****
 48  49 0
 3-21G
 ****


