%nproc=1
%NoSave
%Mem=1900MB
#P OB98/GEN NMR

erre ene a

0 1
  C     -477.146    -185.991    -272.646
  O     -477.150    -186.614    -273.915
  H     -478.117    -186.155    -272.172
  H     -476.990    -184.916    -272.760
  H     -476.365    -186.418    -272.010
  P     -475.750    -186.703    -274.695
  C     -475.908    -189.298    -274.624
  O     -475.128    -188.143    -274.354
  C     -475.216    -190.540    -274.064
  O     -474.838    -190.278    -272.684
  C     -476.099    -191.799    -274.071
  O     -475.262    -192.931    -274.352
  C     -476.580    -191.886    -272.631
  O     -476.972    -193.189    -272.235
  C     -475.354    -191.363    -271.883
  N     -475.671    -190.914    -270.531
  C     -474.919    -191.444    -269.485
  O     -473.956    -192.195    -269.624
  N     -475.317    -191.078    -268.220
  C     -476.378    -190.271    -267.917
  O     -476.696    -189.995    -266.764
  C     -477.134    -189.749    -269.059
  C     -476.753    -190.090    -270.292
  O     -474.818    -185.692    -273.876
  O     -475.806    -186.380    -276.152
  H     -474.884    -184.791    -274.248
  H     -477.764    -193.430    -272.757
  H     -474.787    -191.456    -267.454
  H     -477.987    -189.115    -268.853
  H     -477.307    -189.735    -271.156
  H     -474.575    -192.136    -271.838
  H     -477.440    -191.215    -272.492
  H     -476.924    -191.766    -274.784
  H     -474.290    -190.708    -274.624
  H     -476.027    -189.408    -275.706
  H     -476.901    -189.175    -274.171
  P     -474.813    -193.153    -275.877
  C     -472.275    -192.870    -275.294
  O     -473.399    -192.405    -276.025
  O     -475.848    -192.204    -276.644
  O     -474.840    -194.590    -276.290
  H     -476.066    -191.402    -276.148
  H     -471.427    -192.256    -275.515
  H     -472.064    -193.882    -275.570
  H     -472.486    -192.822    -274.246

 6  7  8  9  10  11  12  13  14  15  16  27  31  32  33  34  35 0
 6-311+G(2d,p)
 ****
 36  37 0
 6-311+G(2d,p)
 ****
 1  2  3  4  5  17  18  19  20  21  22  23  24  25 0
 3-21G
 ****
 26  28  29  30  38  39  40  41  42  43  44  45 0
 3-21G
 ****


