%nproc=1
%NoSave
%Mem=1900MB
#P OB98/GEN NMR

erre ene a

0 1
  C     -358.129     959.820    -132.082
  O     -356.902     960.319    -131.568
  P     -356.249     959.692    -130.240
  C     -358.187     960.869    -129.001
  O     -356.791     960.608    -129.041
  C     -358.595     961.269    -127.589
  O     -358.429     960.151    -126.691
  C     -357.773     962.406    -126.988
  O     -358.160     963.659    -127.533
  C     -358.058     962.220    -125.502
  O     -359.333     962.775    -125.163
  C     -358.107     960.678    -125.383
  N     -356.868     960.103    -124.868
  C     -356.856     959.765    -123.515
  O     -357.851     959.938    -122.802
  N     -355.720     959.197    -122.987
  C     -354.680     959.014    -123.743
  N     -353.608     958.388    -123.187
  C     -354.632     959.411    -125.163
  C     -355.752     959.947    -125.653
  O     -354.765     959.534    -130.286
  O     -357.036     958.320    -130.013
  H     -359.489     962.587    -124.215
  H     -356.634     957.551    -130.485
  H     -353.737     959.251    -125.746
  H     -355.805     960.243    -126.691
  H     -358.939     960.377    -124.726
  H     -357.303     962.673    -124.856
  H     -356.704     962.243    -127.183
  H     -359.665     961.538    -127.602
  H     -353.745     957.978    -122.271
  H     -358.714     959.947    -129.274
  H     -352.892     957.953    -123.762
  H     -358.436     961.651    -129.721
  P     -357.019     964.549    -128.219
  C     -356.674     966.150    -126.207
  O     -357.131     966.006    -127.537
  O     -357.564     964.764    -129.708
  O     -355.661     963.939    -128.199
  H     -357.108     964.164    -130.328
  H     -356.590     967.220    -125.982
  H     -355.682     965.700    -126.085
  H     -357.378     965.696    -125.517
  H     -358.394     960.365    -132.964
  H     -358.897     959.936    -131.347
  H     -358.020     958.783    -132.323

 3  4  5  6  7  8  9  10  11  12  13  23  27  28  29  30  32 0
 6-311+G(2d,p)
 ****
 34  35 0
 6-311+G(2d,p)
 ****
 1  2  14  15  16  17  18  19  20  21  22  24  25  26 0
 3-21G
 ****
 31  33  36  37  38  39  40  41  42  43  44  45  46 0
 3-21G
 ****


