%nproc=1
%NoSave
%Mem=1900MB
#P OB98/GEN NMR

erre ene a

0 1
  C      584.546    -211.160      87.183
  O      585.481    -212.012      87.816
  H      584.855    -210.124      87.335
  H      583.555    -211.298      87.621
  H      584.504    -211.357      86.106
  P      585.368    -213.592      87.590
  C      587.877    -214.094      87.231
  O      586.751    -214.232      88.087
  C      588.781    -215.329      87.327
  O      589.493    -215.293      88.600
  C      588.020    -216.678      87.264
  O      588.908    -217.626      86.666
  C      587.821    -216.958      88.739
  O      587.385    -218.267      88.990
  C      589.210    -216.548      89.268
  N      589.311    -216.403      90.717
  C      589.838    -217.467      91.435
  O      590.230    -218.524      90.936
  N      589.907    -217.294      92.794
  C      589.529    -216.180      93.476
  O      589.646    -216.064      94.696
  C      588.969    -215.082      92.660
  C      588.893    -215.241      91.340
  O      584.922    -214.025      86.232
  O      584.332    -214.057      88.723
  H      583.455    -214.200      88.327
  H      587.030    -218.318      89.904
  H      590.292    -218.056      93.331
  H      588.654    -214.187      93.171
  H      588.499    -214.456      90.707
  H      589.962    -217.266      88.923
  H      587.043    -216.294      89.142
  H      587.100    -216.614      86.682
  H      589.543    -215.270      86.535
  H      588.439    -213.204      87.552
  H      587.542    -213.953      86.204
  P      588.693    -218.241      85.201
  C      590.994    -217.819      84.094
  O      590.108    -218.778      84.665
  O      588.003    -217.314      84.247
  O      587.835    -219.581      85.427
  H      587.326    -219.779      84.616
  H      591.893    -218.307      83.780
  H      591.229    -217.072      84.823
  H      590.525    -217.358      83.250

 6  7  8  9  10  11  12  13  14  15  16  27  31  32  33  34  35 0
 6-311+G(2d,p)
 ****
 36  37 0
 6-311+G(2d,p)
 ****
 1  2  3  4  5  17  18  19  20  21  22  23  24  25 0
 3-21G
 ****
 26  28  29  30  38  39  40  41  42  43  44  45 0
 3-21G
 ****


