%nproc=1
%NoSave
%Mem=1900MB
#P OB98/GEN NMR

erre ene a

0 1
  C     -194.415    -743.963     189.822
  O     -194.611    -743.838     188.425
  P     -195.741    -744.698     187.686
  C     -194.405    -746.889     187.866
  O     -195.035    -745.958     186.989
  C     -194.113    -748.197     187.135
  O     -195.334    -748.793     186.642
  C     -193.229    -748.037     185.908
  O     -191.880    -747.784     186.252
  C     -193.471    -749.364     185.203
  O     -192.676    -750.405     185.782
  C     -194.970    -749.602     185.496
  N     -195.815    -749.308     184.349
  C     -195.552    -750.043     183.188
  O     -194.601    -750.819     183.144
  N     -196.375    -749.866     182.099
  C     -197.290    -748.950     182.127
  N     -198.110    -748.858     181.047
  C     -197.489    -748.041     183.278
  C     -196.740    -748.290     184.351
  O     -196.656    -743.924     186.798
  O     -196.561    -745.376     188.887
  H     -197.512    -745.218     188.747
  H     -191.771    -750.296     185.430
  H     -198.219    -747.249     183.225
  H     -196.833    -747.688     185.248
  H     -195.136    -750.642     185.798
  H     -193.219    -749.318     184.137
  H     -193.606    -747.218     185.287
  H     -193.655    -748.891     187.852
  H     -197.954    -749.510     180.290
  H     -195.072    -747.081     188.712
  H     -199.025    -748.422     181.095
  H     -193.480    -746.448     188.251
  P     -191.291    -746.343     185.870
  C     -190.824    -747.089     183.432
  O     -190.302    -746.545     184.629
  O     -190.311    -746.004     187.087
  O     -192.324    -745.276     185.689
  H     -190.344    -745.051     187.286
  H     -190.148    -746.842     182.615
  H     -191.814    -746.685     183.212
  H     -190.885    -748.180     183.528
  H     -193.622    -743.314     190.130
  H     -194.160    -744.975     190.057
  H     -195.315    -743.694     190.334

 3  4  5  6  7  8  9  10  11  12  13  24  27  28  29  30  32 0
 6-311+G(2d,p)
 ****
 34  35 0
 6-311+G(2d,p)
 ****
 1  2  14  15  16  17  18  19  20  21  22  23  25  26 0
 3-21G
 ****
 31  33  36  37  38  39  40  41  42  43  44  45  46 0
 3-21G
 ****


