%nproc=1
%NoSave
%Mem=1900MB
#P OB98/GEN NMR

erre ene a

0 1
  C      -16.162      72.275     975.515
  O      -16.367      70.878     975.461
  H      -16.893      72.765     974.868
  H      -15.156      72.523     975.163
  H      -16.301      72.640     976.539
  P      -15.370      69.972     976.335
  C      -14.058      69.586     974.130
  O      -13.990      69.908     975.512
  C      -12.949      68.594     973.760
  O      -11.656      69.142     974.072
  C      -13.044      67.254     974.481
  O      -13.961      66.381     973.837
  C      -11.598      66.764     974.388
  O      -11.333      66.178     973.098
  C      -10.816      68.070     974.571
  N       -7.042      67.750     977.919
  C       -7.068      67.438     976.568
  N       -5.937      66.902     976.055
  N       -8.112      67.610     975.805
  C       -9.180      68.118     976.467
  C       -9.271      68.478     977.795
  C       -8.104      68.310     978.627
  O       -7.990      68.627     979.803
  N      -10.523      68.964     978.092
  C      -11.192      68.863     976.956
  N      -10.427      68.336     975.945
  O      -15.963      68.494     976.169
  O      -15.244      70.360     977.769
  H      -10.380      66.009     973.013
  H      -15.773      67.979     976.978
  H       -6.201      67.605     978.445
  H      -12.228      69.153     976.814
  H       -9.890      68.079     973.975
  H      -11.383      66.000     975.133
  H       -5.247      66.453     976.638
  H      -13.310      67.402     975.544
  H       -5.956      66.654     975.075
  H      -12.996      68.445     972.668
  H      -13.932      70.498     973.541
  H      -15.040      69.148     973.911
  P      -14.759      65.334     974.747
  C      -12.935      63.488     974.586
  O      -13.651      64.382     975.418
  O      -15.471      64.376     973.686
  O      -15.738      65.949     975.697
  H      -16.193      63.876     974.112
  H      -12.240      62.929     975.178
  H      -12.404      64.042     973.841
  H      -13.620      62.817     974.111

 6  7  8  9  10  11  12  13  14  15  26  29  33  34 0
 6-311+G(2d,p)
 ****
 36  38  39  40  41 0
 6-311+G(2d,p)
 ****
 1  2  3  4  5  16  17  18  19  20  21  22  23  24  25 0
 3-21G
 ****
 27  28  30  31  32  35  37  42  43  44  45  46  47 0
 3-21G
 ****
 48  49 0
 3-21G
 ****


