%nproc=1
%NoSave
%Mem=1900MB
#P OB98/GEN NMR

erre ene a

0 1
  C       -7.118      22.654     -15.592
  O       -7.905      21.508     -15.819
  P       -8.361      21.017     -17.265
  C       -7.068      20.368     -19.442
  O       -7.122      21.172     -18.270
  C       -6.351      21.106     -20.583
  O       -7.117      22.291     -20.917
  C       -4.953      21.581     -20.157
  O       -3.952      21.406     -21.150
  C       -5.211      23.001     -19.670
  O       -4.048      23.813     -19.642
  C       -6.320      23.455     -20.614
  N       -7.001      28.439     -19.907
  C       -6.083      27.793     -20.710
  N       -5.116      28.567     -21.247
  N       -6.099      26.504     -20.932
  C       -7.056      25.847     -20.237
  C       -8.020      26.379     -19.414
  C       -8.012      27.807     -19.204
  O       -8.736      28.409     -18.410
  N       -8.781      25.405     -18.824
  C       -8.257      24.279     -19.263
  N       -7.185      24.496     -20.098
  O       -9.706      21.467     -17.732
  O       -8.426      19.416     -17.059
  H       -4.338      24.743     -19.628
  H       -9.156      19.084     -17.619
  H       -6.888      29.427     -19.710
  H       -8.590      23.285     -18.988
  H       -5.915      23.837     -21.552
  H       -5.577      22.935     -18.640
  H       -4.992      29.532     -20.977
  H       -4.583      20.981     -19.318
  H       -4.302      28.090     -21.626
  H       -6.326      20.463     -21.468
  H       -8.107      20.161     -19.722
  H       -6.580      19.414     -19.232
  P       -2.375      21.245     -20.966
  C       -0.767      19.513     -19.973
  O       -2.097      19.992     -20.009
  O       -1.934      22.487     -20.061
  O       -1.597      21.234     -22.241
  H       -1.079      22.834     -20.377
  H       -0.765      18.518     -19.519
  H       -0.153      20.181     -19.364
  H       -0.350      19.444     -20.982
  H       -6.949      22.768     -14.542
  H       -7.628      23.517     -15.967
  H       -6.179      22.547     -16.095

 3  4  5  6  7  8  9  10  11  12  23  26  30  31 0
 6-311+G(2d,p)
 ****
 33  35  36  37  38 0
 6-311+G(2d,p)
 ****
 1  2  13  14  15  16  17  18  19  20  21  22  24  25 0
 3-21G
 ****
 27  28  29  32  34  39  40  41  42  43  44  45  46  47  48  49 0
 3-21G
 ****


