%nproc=1
%NoSave
%Mem=1900MB
#P OB98/GEN NMR

erre ene a

0 1
  C      201.020     -74.384     -26.841
  O      201.244     -74.839     -25.520
  H      200.446     -73.455     -26.802
  H      200.447     -75.130     -27.398
  H      201.971     -74.190     -27.345
  P      202.267     -76.060     -25.350
  C      201.285     -77.393     -23.315
  O      202.261     -76.475     -23.796
  C      201.949     -78.446     -22.431
  O      202.956     -79.171     -23.167
  C      202.711     -77.877     -21.246
  O      201.857     -77.392     -20.234
  C      203.522     -79.096     -20.822
  O      202.768     -79.963     -19.966
  C      203.819     -79.781     -22.177
  N      205.223     -79.688     -22.533
  C      206.079     -80.531     -21.813
  O      205.623     -81.297     -20.962
  N      207.427     -80.456     -22.050
  C      207.883     -79.597     -22.909
  N      209.234     -79.551     -23.074
  C      207.015     -78.690     -23.687
  C      205.707     -78.786     -23.450
  O      203.687     -75.349     -25.532
  O      202.033     -77.204     -26.277
  H      202.022     -80.299     -20.506
  H      203.796     -74.547     -24.994
  H      207.445     -78.001     -24.400
  H      204.996     -78.159     -23.976
  H      203.545     -80.844     -22.137
  H      204.421     -78.808     -20.270
  H      203.412     -77.102     -21.583
  H      201.177     -79.156     -22.108
  H      209.794     -80.151     -22.481
  H      200.763     -77.872     -24.149
  H      209.705     -78.871     -23.654
  H      200.547     -76.823     -22.742
  P      202.372     -76.332     -19.149
  C      201.600     -77.583     -17.032
  O      201.394     -76.455     -17.879
  O      202.554     -74.937     -19.650
  O      203.719     -77.002     -18.597
  H      203.603     -77.878     -18.192
  H      200.896     -77.558     -16.227
  H      202.594     -77.556     -16.637
  H      201.465     -78.482     -17.596

 6  7  8  9  10  11  12  13  14  15  16  26  30  31  32  33  35 0
 6-311+G(2d,p)
 ****
 37  38 0
 6-311+G(2d,p)
 ****
 1  2  3  4  5  17  18  19  20  21  22  23  24  25 0
 3-21G
 ****
 27  28  29  34  36  39  40  41  42  43  44  45  46 0
 3-21G
 ****


