%nproc=1
%NoSave
%Mem=1900MB
#P OB98/GEN NMR

erre ene a

0 1
  C      -18.538    -562.064    -158.362
  O      -19.384    -560.966    -158.087
  H      -18.958    -562.633    -159.196
  H      -18.482    -562.718    -157.487
  H      -17.534    -561.727    -158.638
  P      -18.811    -559.825    -157.112
  C      -18.724    -559.425    -154.550
  O      -19.116    -560.297    -155.602
  C      -18.997    -560.082    -153.196
  O      -20.414    -560.374    -153.095
  C      -18.236    -561.399    -152.972
  O      -17.801    -561.462    -151.610
  C      -19.280    -562.465    -153.239
  O      -18.990    -563.692    -152.569
  C      -20.550    -561.769    -152.746
  N      -23.930    -565.498    -152.379
  C      -22.895    -565.138    -151.539
  N      -22.734    -565.899    -150.433
  N      -22.088    -564.135    -151.759
  C      -22.397    -563.439    -152.888
  C      -23.390    -563.696    -153.813
  C      -24.254    -564.830    -153.563
  O      -25.169    -565.208    -154.284
  N      -23.349    -562.782    -154.835
  C      -22.338    -561.988    -154.538
  N      -21.736    -562.341    -153.354
  O      -19.824    -558.606    -157.344
  O      -17.396    -559.419    -157.368
  H      -18.311    -564.159    -153.100
  H      -19.350    -557.855    -157.741
  H      -24.518    -566.286    -152.174
  H      -22.003    -561.147    -155.139
  H      -20.668    -561.847    -151.663
  H      -19.339    -562.669    -154.312
  H      -23.344    -566.662    -150.171
  H      -17.368    -561.500    -153.626
  H      -21.999    -565.641    -149.773
  H      -18.762    -559.359    -152.410
  H      -19.303    -558.492    -154.626
  H      -17.661    -559.195    -154.650
  P      -16.320    -562.008    -151.337
  C      -15.235    -564.251    -150.616
  O      -16.431    -563.503    -150.743
  O      -15.838    -561.144    -150.075
  O      -15.388    -561.846    -152.490
  H      -15.166    -560.492    -150.355
  H      -15.459    -565.216    -150.212
  H      -14.561    -563.738    -149.962
  H      -14.781    -564.364    -151.578

 6  7  8  9  10  11  12  13  14  15  26  29  33  34 0
 6-311+G(2d,p)
 ****
 36  38  39  40  41 0
 6-311+G(2d,p)
 ****
 1  2  3  4  5  16  17  18  19  20  21  22  23  24  25 0
 3-21G
 ****
 27  28  30  31  32  35  37  42  43  44  45  46  47 0
 3-21G
 ****
 48  49 0
 3-21G
 ****


