%nproc=1
%NoSave
%Mem=1900MB
#P OB98/GEN NMR

erre ene a

0 1
  C      -22.962       3.264    -167.118
  O      -23.672       4.491    -167.107
  P      -25.007       4.572    -166.218
  C      -27.343       3.439    -166.285
  O      -26.121       3.692    -166.965
  C      -28.377       2.827    -167.233
  O      -28.758       3.826    -168.220
  C      -27.887       1.589    -167.999
  O      -29.016       0.722    -168.148
  C      -27.470       2.185    -169.332
  O      -27.336       1.233    -170.373
  C      -28.570       3.226    -169.520
  N      -29.796       5.193    -174.076
  C      -30.378       4.231    -173.327
  N      -29.999       3.765    -172.117
  C      -28.901       4.408    -171.685
  C      -28.189       5.395    -172.345
  C      -28.681       5.792    -173.600
  N      -28.079       6.769    -174.368
  N      -27.100       5.797    -171.601
  C      -27.152       5.064    -170.507
  N      -28.233       4.226    -170.505
  O      -25.507       6.074    -166.454
  O      -24.818       4.267    -164.765
  H      -28.219       0.926    -170.660
  H      -25.869       6.459    -165.634
  H      -31.266       3.773    -173.753
  H      -26.431       5.091    -169.702
  H      -29.522       2.767    -169.819
  H      -26.495       2.671    -169.215
  H      -27.087       1.049    -167.483
  H      -29.274       2.583    -166.652
  H      -27.744       4.381    -165.901
  H      -28.387       6.837    -175.326
  H      -27.145       7.054    -174.100
  H      -27.153       2.780    -165.432
  P      -28.792      -0.748    -168.751
  C      -29.142      -1.583    -171.155
  O      -28.723      -0.508    -170.339
  O      -30.258      -1.372    -168.585
  O      -27.700      -1.549    -168.130
  H      -30.942      -0.783    -168.950
  H      -29.136      -1.251    -172.197
  H      -30.156      -1.892    -170.887
  H      -28.451      -2.424    -171.049
  H      -22.101       3.356    -167.747
  H      -23.597       2.488    -167.492
  H      -22.652       3.022    -166.123

 3  4  5  6  7  8  9  10  11  12  22  25  29  30  31  32 0
 6-311+G(2d,p)
 ****
 33  36  37 0
 6-311+G(2d,p)
 ****
 1  2  13  14  15  16  17  18  19  20  21  23  24  26 0
 3-21G
 ****
 27  28  34  35  38  39  40  41  42  43  44  45  46  47  48 0
 3-21G
 ****


