%nproc=1
%NoSave
%Mem=1900MB
#P OB98/GEN NMR

erre ene a

0 1
  C      779.899     419.952     117.291
  O      778.880     420.573     118.049
  P      778.195     421.891     117.447
  C      779.182     424.161     116.560
  O      779.384     422.954     117.279
  C      780.527     424.840     116.269
  O      781.216     424.118     115.232
  C      780.418     426.275     115.773
  O      780.150     427.189     116.827
  C      781.788     426.457     115.112
  O      782.786     426.745     116.110
  C      782.029     425.066     114.499
  N      781.744     425.015     113.062
  C      782.676     425.620     112.231
  O      783.688     426.184     112.645
  N      782.390     425.581     110.889
  C      781.258     425.060     110.319
  O      781.034     425.097     109.115
  C      780.300     424.462     111.252
  C      780.587     424.465     112.558
  O      777.366     422.403     118.719
  O      777.383     421.631     116.224
  H      777.775     422.113     119.557
  H      783.655     426.648     115.658
  H      783.067     426.000     110.259
  H      779.391     424.046     110.846
  H      779.879     424.029     113.268
  H      783.075     424.765     114.657
  H      781.796     427.283     114.395
  H      779.634     426.348     115.007
  H      781.138     424.793     117.186
  H      778.556     424.840     117.168
  H      778.650     423.953     115.632
  P      779.544     428.622     116.403
  C      780.479     430.319     114.655
  O      780.743     429.416     115.706
  O      779.378     429.326     117.835
  O      778.279     428.527     115.609
  H      780.140     429.162     118.434
  H      781.331     431.012     114.561
  H      779.572     430.908     114.845
  H      780.362     429.770     113.718
  H      780.259     419.091     117.815
  H      780.704     420.642     117.143
  H      779.506     419.653     116.342

 3  4  5  6  7  8  9  10  11  12  13  24  28  29  30  31  32 0
 6-311+G(2d,p)
 ****
 33  34 0
 6-311+G(2d,p)
 ****
 1  2  14  15  16  17  18  19  20  21  22  23  25  26  27 0
 3-21G
 ****
 35  36  37  38  39  40  41  42  43  44  45 0
 3-21G
 ****


