%nproc=1
%NoSave
%Mem=1900MB
#P OB98/GEN NMR

erre ene a

0 1
  C      228.550     293.333    -172.714
  O      228.339     292.550    -171.551
  P      229.635     292.125    -170.703
  C      228.363     292.406    -168.452
  O      229.461     292.812    -169.265
  C      228.718     291.147    -167.668
  O      229.978     291.322    -166.996
  C      227.719     290.790    -166.582
  O      226.569     290.189    -167.139
  C      228.546     289.857    -165.707
  O      228.481     288.503    -166.188
  C      229.975     290.429    -165.858
  N      230.439     291.098    -164.656
  C      230.634     290.275    -163.539
  O      230.394     289.069    -163.611
  N      231.054     290.847    -162.363
  C      231.261     292.127    -162.310
  N      231.682     292.639    -161.122
  C      231.046     293.030    -163.458
  C      230.634     292.455    -164.588
  O      230.808     292.974    -171.381
  O      229.923     290.660    -170.694
  H      227.537     288.250    -166.139
  H      231.670     292.532    -171.261
  H      231.229     294.091    -163.362
  H      230.453     293.045    -165.479
  H      230.682     289.625    -166.096
  H      228.186     289.843    -164.673
  H      227.440     291.683    -166.008
  H      228.823     290.317    -168.381
  H      231.811     291.996    -160.354
  H      227.500     292.194    -169.089
  H      231.890     293.619    -160.985
  H      228.104     293.226    -167.773
  P      225.188     290.331    -166.340
  C      224.656     292.358    -167.820
  O      224.783     291.874    -166.496
  O      225.674     290.267    -164.814
  O      224.123     289.330    -166.632
  H      224.904     290.245    -164.221
  H      224.227     293.360    -167.787
  H      223.996     291.708    -168.403
  H      225.643     292.409    -168.295
  H      227.609     293.543    -173.178
  H      229.173     292.795    -173.398
  H      229.027     294.252    -172.444

 3  4  5  6  7  8  9  10  11  12  13  21  23  27  28  29  30  32 0
 6-311+G(2d,p)
 ****
 34  35 0
 6-311+G(2d,p)
 ****
 1  2  14  15  16  17  18  19  20  22  24  25  26 0
 3-21G
 ****
 31  33  36  37  38  39  40  41  42  43  44  45  46 0
 3-21G
 ****


