%nproc=1
%NoSave
%Mem=1900MB
#P OB98/GEN NMR

erre ene a

0 1
  C      298.918      44.974      31.393
  O      298.189      46.130      31.754
  H      298.951      44.903      30.302
  H      298.427      44.080      31.789
  H      299.940      45.037      31.775
  P      297.978      46.376      33.325
  C      295.435      46.162      32.878
  O      296.473      46.904      33.500
  C      294.074      46.774      33.200
  O      293.014      46.021      32.570
  C      293.747      46.830      34.689
  O      294.327      47.974      35.292
  C      292.227      46.890      34.656
  O      291.767      48.228      34.370
  C      291.894      45.942      33.494
  N      288.566      42.731      35.520
  C      288.493      44.098      35.347
  N      287.380      44.710      35.808
  N      289.434      44.812      34.785
  C      290.514      44.079      34.425
  C      290.707      42.721      34.543
  C      289.635      41.938      35.118
  O      289.605      40.716      35.223
  N      291.929      42.349      34.044
  C      292.484      43.482      33.658
  N      291.667      44.561      33.872
  O      298.862      47.680      33.621
  O      298.377      45.244      34.210
  H      290.795      48.247      34.415
  H      299.281      47.581      34.497
  H      287.799      42.230      35.933
  H      293.465      43.573      33.210
  H      291.001      46.266      32.946
  H      291.792      46.614      35.617
  H      286.776      44.276      36.493
  H      294.063      45.911      35.198
  H      287.362      45.719      35.748
  H      294.054      47.780      32.764
  H      295.467      45.130      33.247
  H      295.592      46.160      31.795
  P      295.141      47.781      36.657
  C      292.820      48.107      37.773
  O      294.223      48.314      37.861
  O      296.294      48.887      36.546
  O      295.723      46.419      36.848
  H      297.145      48.458      36.341
  H      292.344      48.513      38.641
  H      292.617      47.058      37.713
  H      292.442      48.594      36.899

 6  7  8  9  10  11  12  13  14  15  26  29  33  34 0
 6-311+G(2d,p)
 ****
 36  38  39  40  41 0
 6-311+G(2d,p)
 ****
 1  2  3  4  5  16  17  18  19  20  21  22  23  24  25 0
 3-21G
 ****
 27  28  30  31  32  35  37  42  43  44  45  46  47 0
 3-21G
 ****
 48  49 0
 3-21G
 ****


