%nproc=1
%NoSave
%Mem=1900MB
#P OB98/GEN NMR

erre ene a

0 1
  C       98.343     -91.674    -172.345
  O       97.918     -93.014    -172.494
  H       99.119     -91.633    -171.575
  H       97.503     -91.046    -172.035
  H       98.757     -91.302    -173.287
  P       96.731     -93.273    -173.543
  C       95.003     -93.376    -171.615
  O       95.574     -94.037    -172.736
  C       93.607     -93.928    -171.325
  O       93.036     -93.285    -170.163
  C       92.607     -93.744    -172.464
  O       92.738     -94.774    -173.427
  C       91.288     -93.806    -171.710
  O       90.915     -95.176    -171.430
  C       91.622     -93.062    -170.411
  N       87.991     -89.573    -170.819
  C       87.919     -90.947    -170.909
  N       86.704     -91.477    -171.180
  N       88.950     -91.742    -170.762
  C       90.110     -91.074    -170.557
  C       90.310     -89.716    -170.447
  C       89.152     -88.853    -170.555
  O       89.136     -87.638    -170.400
  N       91.631     -89.426    -170.220
  C       92.231     -90.603    -170.224
  N       91.351     -91.633    -170.433
  O       97.322     -94.415    -174.504
  O       96.298     -92.082    -174.329
  H       90.803     -95.653    -172.272
  H       97.028     -94.238    -175.417
  H       87.158     -89.014    -170.909
  H       93.290     -90.761    -170.072
  H       91.076     -93.466    -169.551
  H       90.470     -93.380    -172.294
  H       85.956     -90.928    -171.583
  H       92.714     -92.752    -172.925
  H       86.668     -92.480    -171.321
  H       93.719     -94.992    -171.081
  H       94.931     -92.304    -171.834
  H       95.646     -93.522    -170.742
  P       92.834     -94.362    -174.972
  C       90.271     -94.104    -175.296
  O       91.459     -94.785    -175.683
  O       93.896     -95.411    -175.557
  O       93.279     -92.960    -175.216
  H       94.752     -94.968    -175.707
  H       89.442     -94.491    -175.851
  H       90.378     -93.058    -175.496
  H       90.100     -94.251    -174.250

 6  7  8  9  10  11  12  13  14  15  26  29  33  34 0
 6-311+G(2d,p)
 ****
 36  38  39  40  41 0
 6-311+G(2d,p)
 ****
 1  2  3  4  5  16  17  18  19  20  21  22  23  24  25 0
 3-21G
 ****
 27  28  30  31  32  35  37  42  43  44  45  46  47 0
 3-21G
 ****
 48  49 0
 3-21G
 ****


