%nproc=1
%NoSave
%Mem=1900MB
#P OB98/GEN NMR

erre ene a

0 1
  C     -898.920     707.413    -890.726
  O     -899.040     706.611    -891.886
  H     -899.860     707.325    -890.136
  H     -898.790     708.468    -891.006
  H     -898.080     707.069    -890.126
  P     -897.850     706.711    -892.946
  C     -897.340     708.401    -894.876
  O     -898.160     708.046    -893.756
  C     -898.160     709.124    -895.946
  O     -898.840     710.260    -895.346
  C     -897.350     709.696    -897.106
  O     -896.950     708.685    -898.056
  C     -898.360     710.656    -897.666
  O     -899.380     709.939    -898.396
  C     -898.950     711.296    -896.396
  N     -898.220     712.514    -895.966
  C     -898.480     713.673    -896.676
  O     -899.280     713.676    -897.606
  N     -897.810     714.800    -896.346
  C     -896.970     714.813    -895.346
  N     -896.300     715.969    -895.066
  C     -896.660     713.599    -894.566
  C     -897.330     712.484    -894.926
  O     -898.170     705.550    -894.006
  O     -896.450     706.646    -892.366
  H     -898.930     709.418    -899.086
  H     -897.560     705.611    -894.766
  H     -895.920     713.638    -893.756
  H     -897.140     711.549    -894.356
  H     -900.000     711.528    -896.496
  H     -897.920     711.364    -898.356
  H     -896.490     710.238    -896.736
  H     -898.940     708.434    -896.296
  H     -896.470     716.764    -895.676
  H     -896.920     707.475    -895.296
  H     -895.530     716.035    -894.426
  H     -896.510     709.048    -894.536
  P     -895.370     708.527    -898.306
  C     -893.540     710.050    -899.366
  O     -894.910     709.769    -899.216
  O     -895.310     707.270    -899.316
  O     -894.570     708.318    -897.046
  H     -894.490     706.755    -899.136
  H     -893.418     710.903    -900.000
  H     -893.049     709.207    -899.805
  H     -893.111     710.254    -898.407

 6  7  8  9  10  11  12  13  14  15  16  26  30  31  32  33  35 0
 6-311+G(2d,p)
 ****
 37  38 0
 6-311+G(2d,p)
 ****
 1  2  3  4  5  17  18  19  20  21  22  23  24  25 0
 3-21G
 ****
 27  28  29  34  36  39  40  41  42  43  44  45  46 0
 3-21G
 ****


