%nproc=1
%NoSave
%Mem=1900MB
#P OB98/GEN NMR

erre ene a

0 1
  C      -64.420     219.177     330.028
  O      -64.481     217.764     329.987
  H      -63.928     219.547     329.126
  H      -65.437     219.572     330.061
  H      -63.879     219.517     330.916
  P      -63.113     216.962     330.237
  C      -63.636     215.864     332.529
  O      -62.925     216.875     331.830
  C      -63.468     216.042     334.039
  O      -62.103     215.678     334.397
  C      -63.723     217.468     334.542
  O      -64.398     217.391     335.801
  C      -62.325     218.015     334.766
  O      -62.288     219.061     335.735
  C      -61.578     216.757     335.194
  N      -57.407     218.996     337.056
  C      -58.632     218.785     337.587
  N      -59.674     218.129     337.039
  C      -59.336     217.604     335.847
  C      -58.126     217.731     335.181
  C      -57.135     218.484     335.832
  N      -55.908     218.766     335.276
  N      -58.189     217.102     333.952
  C      -59.413     216.629     333.869
  N      -60.148     216.911     334.991
  O      -62.003     218.028     329.785
  O      -62.978     215.672     329.500
  H      -62.849     219.798     335.419
  H      -61.842     217.943     328.826
  H      -58.800     219.206     338.576
  H      -59.833     216.110     333.018
  H      -61.734     216.511     336.253
  H      -61.928     218.407     333.821
  H      -64.307     218.085     333.848
  H      -64.129     215.326     334.546
  H      -63.241     214.887     332.239
  H      -55.301     219.400     335.768
  H      -55.731     218.483     334.320
  H      -64.695     215.913     332.259
  P      -65.148     218.708     336.319
  C      -67.303     217.874     337.524
  O      -66.726     218.426     336.342
  O      -64.977     219.731     335.096
  O      -64.589     219.270     337.586
  H      -64.910     220.648     335.431
  H      -68.356     217.746     337.381
  H      -67.133     218.536     338.347
  H      -66.854     216.925     337.731

 6  7  8  9  10  11  12  13  14  15  25  28  32  33  34  35 0
 6-311+G(2d,p)
 ****
 36  39  40 0
 6-311+G(2d,p)
 ****
 1  2  3  4  5  16  17  18  19  20  21  22  23  24 0
 3-21G
 ****
 26  27  29  30  31  37  38  41  42  43  44  45  46  47 0
 3-21G
 ****
 48 0
 3-21G
 ****


