%nproc=1
%NoSave
%Mem=1900MB
#P OB98/GEN NMR

erre ene a

0 1
  C     -233.687    -694.689    -443.728
  O     -234.867    -693.909    -443.686
  P     -236.176    -694.477    -442.959
  C     -235.769    -693.107    -440.819
  O     -235.916    -694.412    -441.374
  C     -237.041    -692.719    -440.054
  O     -237.332    -693.705    -439.042
  C     -236.931    -691.399    -439.312
  O     -237.056    -690.308    -440.210
  C     -238.075    -691.524    -438.304
  O     -239.329    -691.188    -438.917
  C     -238.020    -693.026    -437.966
  N     -238.013    -696.015    -433.837
  C     -238.903    -695.883    -434.845
  N     -238.856    -695.036    -435.895
  C     -237.762    -694.252    -435.817
  C     -236.787    -694.253    -434.827
  C     -236.924    -695.206    -433.806
  N     -236.010    -695.395    -432.797
  N     -235.842    -693.276    -435.075
  C     -236.239    -692.705    -436.195
  N     -237.349    -693.301    -436.708
  O     -236.666    -695.796    -443.464
  O     -237.274    -693.336    -443.185
  H     -239.255    -690.264    -439.241
  H     -238.023    -693.701    -443.693
  H     -239.757    -696.549    -434.813
  H     -235.740    -691.860    -436.676
  H     -239.027    -693.464    -437.904
  H     -237.951    -690.871    -437.443
  H     -235.983    -691.344    -438.772
  H     -237.880    -692.706    -440.758
  H     -235.610    -692.408    -441.640
  H     -236.135    -696.196    -432.211
  H     -235.065    -695.017    -432.929
  H     -234.906    -693.083    -440.149
  P     -236.535    -688.861    -439.782
  C     -234.849    -688.388    -441.654
  O     -235.015    -688.732    -440.285
  O     -236.763    -688.482    -438.353
  O     -237.322    -687.874    -440.767
  H     -237.486    -687.019    -440.304
  H     -235.023    -689.267    -442.275
  H     -233.824    -688.043    -441.800
  H     -235.534    -687.597    -441.943
  H     -232.923    -694.152    -444.250
  H     -233.886    -695.610    -444.236
  H     -233.360    -694.895    -442.730

 3  4  5  6  7  8  9  10  11  12  22  25  29  30  31  32 0
 6-311+G(2d,p)
 ****
 33  36  37 0
 6-311+G(2d,p)
 ****
 1  2  13  14  15  16  17  18  19  20  21  23  24  26 0
 3-21G
 ****
 27  28  34  35  38  39  40  41  42  43  44  45  46  47  48 0
 3-21G
 ****


