%nproc=1
%NoSave
%Mem=1900MB
#P OB98/GEN NMR

erre ene a

0 1
  C      -47.756    -186.117      10.609
  O      -48.840    -185.365      10.104
  H      -48.142    -187.048      11.033
  H      -47.236    -185.564      11.396
  H      -47.056    -186.364       9.803
  P      -48.552    -183.915       9.481
  C      -48.529    -182.982      11.890
  O      -47.856    -183.042      10.635
  C      -48.123    -181.707      12.646
  O      -46.716    -181.822      12.985
  C      -48.315    -180.435      11.800
  O      -49.088    -179.437      12.465
  C      -46.892    -180.077      11.383
  O      -46.689    -178.710      11.105
  C      -46.041    -180.634      12.531
  N      -44.663    -180.942      12.151
  C      -43.850    -179.873      11.768
  O      -44.198    -178.694      11.741
  N      -42.565    -180.207      11.409
  C      -42.037    -181.464      11.381
  O      -40.875    -181.697      11.053
  C      -42.953    -182.550      11.767
  C      -44.203    -182.247      12.126
  O      -49.714    -183.257       8.817
  O      -47.352    -184.167       8.448
  H      -45.741    -178.597      10.876
  H      -47.696    -184.146       7.535
  H      -41.964    -179.440      11.147
  H      -42.566    -183.564      11.741
  H      -44.903    -183.023      12.418
  H      -46.004    -179.923      13.359
  H      -46.654    -180.631      10.463
  H      -48.906    -180.652      10.899
  H      -48.691    -181.658      13.582
  H      -48.246    -183.867      12.465
  H      -49.612    -182.987      11.725
  P      -50.665    -179.511      12.715
  C      -51.019    -179.167      10.127
  O      -51.387    -179.844      11.326
  O      -51.247    -178.403      13.530
  O      -50.854    -180.879      13.554
  H      -51.619    -180.735      14.148
  H      -51.614    -179.530       9.315
  H      -49.985    -179.346       9.919
  H      -51.182    -178.116      10.246

 6  7  8  9  10  11  12  13  14  15  16  26  31  32  33  34  35 0
 6-311+G(2d,p)
 ****
 36  37 0
 6-311+G(2d,p)
 ****
 1  2  3  4  5  17  18  19  20  21  22  23  24  25 0
 3-21G
 ****
 27  28  29  30  38  39  40  41  42  43  44  45 0
 3-21G
 ****


