%nproc=1
%NoSave
%Mem=1900MB
#P OB98/GEN NMR

erre ene a

0 1
  C      807.873    -929.895     248.404
  O      806.572    -929.818     248.956
  H      807.856    -929.393     247.437
  H      808.163    -930.932     248.258
  H      808.581    -929.381     249.043
  P      806.295    -930.532     250.370
  C      805.059    -932.701     249.716
  O      806.291    -932.107     250.095
  C      805.298    -933.982     248.924
  O      806.014    -934.919     249.802
  C      803.984    -934.682     248.473
  O      803.970    -934.956     247.073
  C      803.845    -935.847     249.451
  O      803.088    -936.932     248.940
  C      805.295    -936.177     249.808
  N      805.452    -936.836     251.090
  C      804.934    -938.127     251.219
  O      804.380    -938.764     250.326
  N      805.093    -938.708     252.459
  C      805.688    -938.143     253.552
  O      805.781    -938.718     254.633
  C      806.182    -936.771     253.367
  C      806.047    -936.194     252.172
  O      805.107    -930.027     251.118
  O      807.647    -930.301     251.185
  H      803.130    -937.637     249.604
  H      807.506    -929.618     251.864
  H      804.740    -939.646     252.548
  H      806.643    -936.282     254.211
  H      806.405    -935.170     252.009
  H      805.752    -936.811     249.052
  H      803.319    -935.482     250.354
  H      803.139    -933.992     248.600
  H      805.945    -933.769     248.071
  H      804.500    -931.977     249.096
  H      804.456    -932.925     250.613
  P      803.258    -934.035     245.966
  C      800.713    -934.707     245.903
  O      801.729    -933.823     246.387
  O      803.531    -934.427     244.561
  O      803.906    -932.565     246.219
  H      803.942    -932.153     245.349
  H      799.763    -934.405     246.291
  H      800.928    -935.706     246.222
  H      800.689    -934.671     244.834

 6  7  8  9  10  11  12  13  14  15  16  26  31  32  33  34  35 0
 6-311+G(2d,p)
 ****
 36  37 0
 6-311+G(2d,p)
 ****
 1  2  3  4  5  17  18  19  20  21  22  23  24  25 0
 3-21G
 ****
 27  28  29  30  38  39  40  41  42  43  44  45 0
 3-21G
 ****


