%nproc=1
%NoSave
%Mem=1900MB
#P OB98/GEN NMR

erre ene a

0 1
  C       56.033     681.238      69.133
  O       55.651     681.920      70.321
  P       55.720     683.526      70.309
  C       53.146     683.468      70.668
  O       54.239     684.013      69.934
  C       52.323     684.578      71.299
  O       51.792     685.433      70.274
  C       51.110     684.095      72.095
  O       51.473     683.668      73.397
  C       50.272     685.363      72.144
  O       50.745     686.215      73.204
  C       50.552     686.002      70.775
  N       47.963     687.986      66.895
  C       48.996     688.526      67.641
  N       49.414     689.762      67.285
  N       49.564     687.912      68.645
  C       49.066     686.666      68.866
  C       48.053     686.024      68.196
  C       47.397     686.735      67.122
  O       46.443     686.332      66.463
  N       47.847     684.761      68.692
  C       48.763     684.631      69.638
  N       49.508     685.770      69.793
  O       56.559     683.842      68.983
  O       56.330     684.149      71.515
  H       50.237     687.045      73.154
  H       56.997     684.713      69.068
  H       47.576     688.497      66.124
  H       48.911     683.728      70.218
  H       50.709     687.086      70.859
  H       49.216     685.166      72.347
  H       49.102     690.222      66.447
  H       50.569     683.316      71.543
  H       50.193     690.153      67.804
  H       52.984     685.183      71.935
  H       53.538     682.819      71.460
  H       52.532     682.870      69.990
  P       51.774     682.094      73.576
  C       54.315     682.652      73.674
  O       53.282     681.895      73.063
  O       50.893     681.423      72.425
  O       51.459     681.558      74.928
  H       50.664     680.500      72.669
  H       54.134     682.789      74.745
  H       54.381     683.631      73.188
  H       55.260     682.123      73.546
  H       55.939     680.183      69.282
  H       57.049     681.476      68.896
  H       55.398     681.542      68.327

 3  4  5  6  7  8  9  10  11  12  23  26  30  31  33  0
 6-311+G(2d,p)
 ****
 35  36  37  38 0
 6-311+G(2d,p)
 ****
 1  2  13  14  15  16  17  18  19  20  21  22  24  25  27  28  29 0
 3-21G
 ****
 32  34  39  40  41  42  43  44  45  46  47  48  49 0
 3-21G
 ****


