%nproc=1
%NoSave
%Mem=1900MB
#P OB98/GEN NMR

erre ene a

0 1
  C     -276.072     157.523    -361.780
  O     -275.371     157.962    -360.631
  H     -275.484     156.745    -362.275
  H     -276.215     158.350    -362.481
  H     -277.040     157.103    -361.499
  P     -276.031     159.112    -359.735
  C     -277.435     157.279    -358.579
  O     -277.445     158.533    -359.250
  C     -278.839     156.938    -358.092
  O     -279.251     157.852    -357.058
  C     -279.908     157.003    -359.182
  O     -279.896     155.819    -359.962
  C     -281.159     157.152    -358.332
  O     -281.514     155.874    -357.765
  C     -280.673     158.107    -357.229
  N     -283.988     161.943    -357.390
  C     -284.187     160.605    -357.091
  N     -285.462     160.236    -356.839
  N     -283.228     159.715    -357.062
  C     -282.020     160.221    -357.400
  C     -281.703     161.517    -357.731
  C     -282.758     162.504    -357.706
  O     -282.620     163.699    -357.950
  N     -280.379     161.634    -358.083
  C     -279.894     160.421    -357.926
  N     -280.853     159.518    -357.527
  O     -276.116     160.474    -360.357
  O     -275.154     159.117    -358.399
  H     -282.064     156.059    -356.982
  H     -274.424     159.759    -358.456
  H     -284.766     162.573    -357.413
  H     -278.858     160.137    -358.086
  H     -281.160     157.915    -356.267
  H     -282.020     157.507    -358.896
  H     -286.247     160.805    -357.126
  H     -279.801     157.902    -359.800
  H     -285.636     159.256    -356.669
  H     -278.802     155.938    -357.641
  H     -276.747     157.362    -357.732
  H     -277.075     156.491    -359.250
  P     -280.935     155.614    -361.170
  C     -279.444     156.884    -362.861
  O     -280.673     156.857    -362.153
  O     -282.353     155.433    -360.757
  O     -280.339     154.390    -362.003
  H     -280.655     153.506    -361.688
  H     -279.404     157.761    -363.473
  H     -279.369     156.014    -363.479
  H     -278.632     156.898    -362.165

 6  7  8  9  10  11  12  13  14  15  26  29  33  34 0
 6-311+G(2d,p)
 ****
 36  38  39  40  41 0
 6-311+G(2d,p)
 ****
 1  2  3  4  5  16  17  18  19  20  21  22  23  24  25 0
 3-21G
 ****
 27  28  30  31  32  35  37  42  43  44  45  46  47 0
 3-21G
 ****
 48  49 0
 3-21G
 ****


