%nproc=1
%NoSave
%Mem=1900MB
#P OB98/GEN NMR

erre ene a

0 1
  C      -61.649    -172.045      95.888
  O      -61.260    -173.394      95.714
  H      -62.442    -172.003      96.639
  H      -62.032    -171.645      94.946
  H      -60.801    -171.445      96.233
  P      -59.979    -173.662      94.783
  C      -57.957    -172.003      95.004
  O      -58.731    -173.042      95.575
  C      -56.557    -171.971      95.623
  O      -56.689    -171.805      97.058
  C      -55.744    -173.242      95.373
  O      -54.372    -172.877      95.214
  C      -55.909    -174.024      96.666
  O      -54.854    -174.960      96.866
  C      -55.978    -172.886      97.697
  N      -56.627    -173.297      98.939
  C      -55.803    -173.844      99.928
  O      -54.594    -173.973      99.726
  N      -56.367    -174.271     101.102
  C      -57.653    -174.220     101.253
  N      -58.154    -174.682     102.430
  C      -58.567    -173.693     100.220
  C      -57.992    -173.245      99.105
  O      -60.223    -172.627      93.587
  O      -59.818    -175.080      94.348
  H      -54.005    -174.468      96.911
  H      -60.504    -171.746      93.888
  H      -59.634    -173.680     100.388
  H      -58.585    -172.834      98.298
  H      -54.970    -172.524      97.938
  H      -56.854    -174.580      96.652
  H      -56.085    -173.796      94.495
  H      -56.031    -171.086      95.249
  H      -57.495    -175.056     103.101
  H      -58.443    -171.035      95.159
  H      -59.141    -174.742     102.634
  H      -57.890    -172.183      93.926
  P      -53.722    -172.870      93.751
  C      -54.129    -171.388      91.671
  O      -53.940    -171.431      93.081
  O      -54.064    -174.034      92.885
  O      -52.145    -172.861      94.068
  H      -51.710    -173.461      93.433
  H      -54.262    -170.373      91.360
  H      -54.997    -171.957      91.410
  H      -53.271    -171.801      91.183

 6  7  8  9  10  11  12  13  14  15  16  26  30  31  32  33  35 0
 6-311+G(2d,p)
 ****
 37  38 0
 6-311+G(2d,p)
 ****
 1  2  3  4  5  17  18  19  20  21  22  23  24  25 0
 3-21G
 ****
 27  28  29  34  36  39  40  41  42  43  44  45  46 0
 3-21G
 ****


