%nproc=1
%NoSave
%Mem=1900MB
#P OB98/GEN NMR

erre ene a

0 1
  C      140.950    -182.378     294.906
  O      139.902    -183.199     295.383
  H      141.749    -182.362     295.650
  H      140.581    -181.359     294.762
  H      141.352    -182.766     293.966
  P      138.779    -183.630     294.319
  C      139.857    -185.983     294.141
  O      139.409    -184.826     293.453
  C      140.144    -187.109     293.152
  O      140.725    -188.243     293.833
  C      138.911    -187.635     292.423
  O      138.587    -186.827     291.297
  C      139.403    -189.003     291.986
  O      140.275    -188.865     290.842
  C      140.215    -189.453     293.209
  N      136.752    -193.091     293.925
  C      137.231    -192.544     292.750
  N      136.709    -193.028     291.604
  N      138.139    -191.602     292.702
  C      138.554    -191.198     293.925
  C      138.151    -191.658     295.159
  C      137.161    -192.709     295.196
  O      136.711    -193.237     296.211
  N      138.795    -191.006     296.176
  C      139.570    -190.136     295.559
  N      139.460    -190.210     294.194
  O      138.763    -182.392     293.302
  O      137.425    -183.881     294.891
  H      139.801    -188.316     290.189
  H      137.986    -181.833     293.499
  H      136.047    -193.807     293.907
  H      140.234    -189.440     296.055
  H      141.078    -190.069     292.931
  H      138.592    -189.667     291.687
  H      135.993    -193.736     291.570
  H      138.056    -187.749     293.100
  H      137.048    -192.644     290.732
  H      140.890    -186.744     292.435
  H      139.081    -186.304     294.844
  H      140.767    -185.736     294.698
  P      137.363    -187.280     290.367
  C      135.576    -186.523     292.088
  O      136.127    -187.599     291.341
  O      137.824    -188.728     289.862
  O      137.063    -186.375     289.223
  H      138.016    -188.700     288.904
  H      134.766    -186.883     292.687
  H      135.217    -185.771     291.418
  H      136.330    -186.105     292.721

 6  7  8  9  10  11  12  13  14  15  26  29  33  34 0
 6-311+G(2d,p)
 ****
 36  38  39  40  41 0
 6-311+G(2d,p)
 ****
 1  2  3  4  5  16  17  18  19  20  21  22  23  24  25 0
 3-21G
 ****
 27  28  30  31  32  35  37  42  43  44  45  46  47 0
 3-21G
 ****
 48  49 0
 3-21G
 ****


