%nproc=1
%NoSave
%Mem=1900MB
#P OB98/GEN NMR

erre ene a

0 1
  C       -9.897      10.461       0.763
  O      -10.700      10.141      -0.354
  H      -10.545      10.778       1.584
  H       -9.230      11.287       0.506
  H       -9.312       9.596       1.086
  P      -10.019       9.287      -1.528
  C      -12.094       7.737      -1.691
  O      -10.692       7.829      -1.485
  C      -12.782       7.194      -0.439
  O      -12.597       8.154       0.646
  C      -14.293       6.960      -0.603
  O      -14.663       5.791       0.139
  C      -14.897       8.170       0.086
  O      -16.230       7.935       0.524
  C      -13.898       8.377       1.220
  N      -17.092      11.411       3.622
  C      -17.176      10.063       3.340
  N      -18.314       9.429       3.696
  N      -16.224       9.389       2.749
  C      -15.133      10.139       2.463
  C      -14.928      11.478       2.686
  C      -15.997      12.219       3.324
  O      -15.991      13.417       3.581
  N      -13.711      11.878       2.192
  C      -13.194      10.786       1.655
  N      -14.021       9.706       1.793
  O       -8.541       9.036      -0.965
  O      -10.000       9.943      -2.867
  H      -16.567       8.757       0.934
  H       -7.935       9.716      -1.313
  H      -17.861      11.887       4.062
  H      -12.245      10.731       1.143
  H      -14.039       7.662       2.041
  H      -14.902       9.027      -0.598
  H      -19.078       9.873       4.181
  H      -14.616       6.856      -1.643
  H      -18.372       8.432       3.531
  H      -12.279       6.269      -0.135
  H      -12.291       7.059      -2.528
  H      -12.487       8.728      -1.942
  P      -14.814       4.409      -0.658
  C      -13.652       2.628       0.842
  O      -13.564       3.471      -0.297
  O      -14.526       4.834      -2.175
  O      -16.155       3.770      -0.514
  H      -15.073       4.297      -2.778
  H      -12.744       2.071       0.945
  H      -14.473       1.952       0.723
  H      -13.805       3.225       1.717

 6  7  8  9  10  11  12  13  14  15  26  29  33  34 0
 6-311+G(2d,p)
 ****
 36  38  39  40  41 0
 6-311+G(2d,p)
 ****
 1  2  3  4  5  16  17  18  19  20  21  22  23  24  25 0
 3-21G
 ****
 27  28  30  31  32  35  37  42  43  44  45  46  47 0
 3-21G
 ****
 48  49 0
 3-21G
 ****


