%nproc=1
%NoSave
%Mem=1900MB
#P OB98/GEN NMR

erre ene a

0 1
  C      433.399     353.816      53.552
  O      433.353     353.427      52.193
  H      434.261     353.359      54.047
  H      433.499     354.906      53.607
  H      432.478     353.518      54.063
  P      433.245     351.857      51.893
  C      431.349     351.751      50.108
  O      432.749     351.749      50.369
  C      431.092     351.167      48.724
  O      431.507     352.097      47.701
  C      431.858     349.868      48.454
  O      431.222     348.725      48.998
  C      431.835     349.842      46.931
  O      430.542     349.414      46.472
  C      432.062     351.329      46.593
  N      435.955     351.596      43.270
  C      434.653     351.255      43.114
  N      433.674     351.227      44.043
  C      434.152     351.621      45.238
  C      435.447     351.993      45.545
  C      436.375     351.974      44.498
  N      437.716     352.286      44.662
  N      435.555     352.307      46.891
  C      434.344     352.131      47.383
  N      433.463     351.683      46.426
  O      431.948     351.394      52.721
  O      434.457     351.043      52.205
  H      430.558     349.460      45.500
  H      431.918     350.415      52.797
  H      434.358     350.959      42.105
  H      434.049     352.297      48.414
  H      431.536     351.640      45.682
  H      432.578     349.152      46.511
  H      432.900     349.946      48.792
  H      430.009     351.001      48.608
  H      430.975     352.783      50.148
  H      438.331     352.096      43.883
  H      438.067     352.427      45.599
  H      430.837     351.154      50.874
  P      432.133     347.675      49.798
  C      430.688     346.154      51.334
  O      431.231     346.371      50.038
  O      432.232     348.331      51.266
  O      433.486     347.435      49.202
  H      433.092     348.124      51.684
  H      430.115     345.250      51.334
  H      430.057     346.977      51.599
  H      431.484     346.072      52.045

 6  7  8  9  10  11  12  13  14  15  25  28  32  33  34  35 0
 6-311+G(2d,p)
 ****
 36  39  40 0
 6-311+G(2d,p)
 ****
 1  2  3  4  5  16  17  18  19  20  21  22  23  24 0
 3-21G
 ****
 26  27  29  30  31  37  38  41  42  43  44  45  46  47 0
 3-21G
 ****
 48 0
 3-21G
 ****


