%nproc=1
%NoSave
%Mem=1900MB
#P OB98/GEN NMR

erre ene a

0 1
  C     -223.087     366.500      66.196
  O     -222.787     365.827      67.407
  P     -222.376     364.280      67.400
  C     -223.991     363.681      69.316
  O     -222.637     363.735      68.892
  C     -224.135     364.219      70.743
  O     -223.423     363.334      71.644
  C     -223.567     365.617      70.924
  O     -224.383     366.334      71.857
  C     -222.207     365.388      71.561
  O     -221.789     366.535      72.330
  C     -222.464     364.121      72.381
  N     -218.176     363.514      75.136
  C     -219.184     364.402      75.234
  N     -220.280     364.522      74.454
  C     -220.303     363.556      73.512
  C     -219.345     362.578      73.297
  C     -218.230     362.577      74.159
  N     -217.208     361.660      74.066
  N     -219.695     361.779      72.221
  C     -220.852     362.258      71.816
  N     -221.271     363.328      72.574
  O     -221.021     363.983      66.861
  O     -223.528     363.558      66.549
  H     -221.146     366.219      72.998
  H     -223.150     362.848      65.999
  H     -219.102     365.122      76.046
  H     -221.425     361.877      70.982
  H     -222.894     364.350      73.363
  H     -221.457     365.220      70.781
  H     -223.494     366.176      69.985
  H     -225.198     364.185      71.019
  H     -224.326     362.637      69.284
  H     -216.516     361.660      74.802
  H     -217.338     360.861      73.456
  H     -224.613     364.258      68.620
  P     -225.333     367.473      71.222
  C     -224.900     369.069      73.244
  O     -225.835     368.332      72.491
  O     -226.387     366.901      70.331
  O     -224.258     368.407      70.487
  H     -223.374     368.321      70.890
  H     -225.424     369.552      74.075
  H     -224.449     369.853      72.620
  H     -224.118     368.415      73.640
  H     -223.337     367.519      66.407
  H     -223.916     366.021      65.718
  H     -222.235     366.468      65.550

 3  4  5  6  7  8  9  10  11  12  22  25  29  30  31  32 0
 6-311+G(2d,p)
 ****
 33  36  37 0
 6-311+G(2d,p)
 ****
 1  2  13  14  15  16  17  18  19  20  21  23  24  26 0
 3-21G
 ****
 27  28  34  35  38  39  40  41  42  43  44  45  46  47  48 0
 3-21G
 ****


