%nproc=1
%NoSave
%Mem=1900MB
#P OB98/GEN NMR

erre ene a

0 1
  C      394.116    -157.498     -47.882
  O      393.698    -158.099     -49.112
  P      392.445    -159.102     -49.078
  C      392.017    -161.630     -48.776
  O      392.993    -160.600     -48.895
  C      392.446    -162.886     -49.561
  O      392.389    -162.587     -50.982
  C      393.884    -163.355     -49.294
  O      394.111    -164.275     -48.232
  C      394.197    -164.103     -50.588
  O      393.677    -165.444     -50.524
  C      393.440    -163.313     -51.654
  N      397.118    -162.926     -55.201
  C      396.470    -163.995     -54.683
  N      395.505    -164.008     -53.744
  C      395.210    -162.763     -53.339
  C      395.785    -161.578     -53.775
  C      396.788    -161.691     -54.752
  N      397.463    -160.601     -55.268
  N      395.231    -160.495     -53.123
  C      394.348    -161.019     -52.292
  N      394.286    -162.384     -52.393
  O      391.436    -158.918     -50.163
  O      391.796    -158.802     -47.641
  H      393.880    -165.860     -51.382
  H      390.821    -158.849     -47.715
  H      396.766    -164.966     -55.076
  H      393.735    -160.455     -51.604
  H      392.963    -163.965     -52.403
  H      395.273    -164.192     -50.769
  H      394.563    -162.493     -49.188
  H      391.742    -163.701     -49.353
  H      391.057    -161.274     -49.152
  H      398.199    -160.781     -55.937
  H      397.268    -159.685     -54.904
  H      391.879    -161.836     -47.705
  P      394.852    -163.822     -46.887
  C      397.288    -162.997     -46.368
  O      396.366    -163.504     -47.316
  O      394.725    -164.775     -45.740
  O      394.241    -162.369     -46.613
  H      394.508    -161.696     -47.262
  H      398.292    -163.049     -46.793
  H      397.260    -163.585     -45.446
  H      397.047    -161.949     -46.152
  H      394.956    -156.860     -48.064
  H      394.393    -158.263     -47.187
  H      393.312    -156.922     -47.475

 3  4  5  6  7  8  9  10  11  12  22  25  29  30  31  32 0
 6-311+G(2d,p)
 ****
 33  36  37 0
 6-311+G(2d,p)
 ****
 1  2  13  14  15  16  17  18  19  20  21  23  24  26 0
 3-21G
 ****
 27  28  34  35  38  39  40  41  42  43  44  45  46  47  48 0
 3-21G
 ****


