%nproc=1
%NoSave
%Mem=1900MB
#P OB98/GEN NMR

erre ene a

0 1
  C       33.565     -84.113     463.359
  O       34.226     -85.005     462.484
  H       33.208     -84.673     464.226
  H       32.707     -83.660     462.859
  H       34.248     -83.328     463.706
  P       35.006     -84.409     461.217
  C       32.700     -84.255     460.060
  O       34.062     -84.644     459.941
  C       31.840     -84.965     459.005
  O       32.268     -84.521     457.684
  C       31.961     -86.505     459.024
  O       30.701     -87.027     458.574
  C       33.053     -86.722     457.990
  O       33.177     -88.065     457.611
  C       32.593     -85.711     456.930
  N       33.572     -85.409     455.890
  C       34.200     -86.485     455.269
  O       33.992     -87.666     455.527
  N       35.119     -86.155     454.306
  C       35.450     -84.897     453.900
  O       36.257     -84.661     453.012
  C       34.757     -83.803     454.600
  C       33.856     -84.106     455.546
  O       36.415     -84.862     461.053
  O       34.919     -82.821     461.433
  H       35.767     -82.491     461.783
  H       32.347     -88.352     457.181
  H       35.580     -86.917     453.840
  H       34.998     -82.787     454.319
  H       33.322     -83.320     456.070
  H       31.666     -86.055     456.462
  H       34.021     -86.436     458.411
  H       32.188     -86.901     460.018
  H       30.797     -84.648     459.128
  H       32.639     -83.170     459.916
  H       32.339     -84.499     461.064
  P       29.516     -87.460     459.566
  C       30.137     -89.973     459.408
  O       29.129     -88.984     459.242
  O       28.352     -86.523     459.565
  O       30.190     -87.544     461.019
  H       29.511     -87.388     461.702
  H       29.739     -90.934     459.158
  H       30.467     -89.978     460.426
  H       30.964     -89.751     458.766

 6  7  8  9  10  11  12  13  14  15  16  27  31  32  33  34  35 0
 6-311+G(2d,p)
 ****
 36  37 0
 6-311+G(2d,p)
 ****
 1  2  3  4  5  17  18  19  20  21  22  23  24  25 0
 3-21G
 ****
 26  28  29  30  38  39  40  41  42  43  44  45 0
 3-21G
 ****


