%nproc=1
%NoSave
%Mem=1900MB
#P OB98/GEN NMR

erre ene a

0 1
  C      -33.372      98.060     265.487
  O      -33.771      99.419     265.425
  P      -33.601     100.237     264.063
  C      -31.438     101.476     264.695
  O      -32.033     100.501     263.844
  C      -29.915     101.407     264.599
  O      -29.445     100.114     265.038
  C      -29.373     101.582     263.186
  O      -29.403     102.940     262.800
  C      -27.972     100.991     263.331
  O      -27.071     101.960     263.899
  C      -28.218      99.835     264.318
  N      -25.687      96.419     261.496
  C      -25.386      97.685     261.867
  N      -26.133      98.551     262.592
  C      -27.313      97.992     262.915
  C      -27.778      96.726     262.582
  C      -26.894      95.904     261.851
  N      -27.163      94.592     261.524
  N      -29.052      96.529     263.072
  C      -29.356      97.664     263.681
  N      -28.315      98.546     263.666
  O      -34.470     101.445     263.931
  O      -33.948      99.163     262.925
  H      -26.164     101.655     263.711
  H      -34.716      99.473     262.409
  H      -24.414      98.047     261.545
  H      -30.305      97.880     264.160
  H      -27.421      99.770     265.068
  H      -27.551     100.672     262.372
  H      -29.951     100.967     262.484
  H      -29.495     102.166     265.272
  H      -31.755     101.282     265.725
  H      -26.406      94.059     261.135
  H      -27.901      94.116     262.035
  H      -31.787     102.477     264.403
  P      -29.910     103.343     261.329
  C      -27.498     103.328     260.458
  O      -28.807     102.813     260.295
  O      -30.318     104.771     261.151
  O      -31.143     102.346     261.074
  H      -31.804     102.789     260.508
  H      -27.447     104.338     260.039
  H      -26.795     102.683     259.916
  H      -27.211     103.351     261.512
  H      -33.558      97.678     266.469
  H      -32.328      97.985     265.267
  H      -33.929      97.492     264.772

 3  4  5  6  7  8  9  10  11  12  22  25  29  30  31  32 0
 6-311+G(2d,p)
 ****
 33  36  37 0
 6-311+G(2d,p)
 ****
 1  2  13  14  15  16  17  18  19  20  21  23  24  26 0
 3-21G
 ****
 27  28  34  35  38  39  40  41  42  43  44  45  46  47  48 0
 3-21G
 ****


