%nproc=1
%NoSave
%Mem=1900MB
#P OB98/GEN NMR

erre ene a

0 1
  C      160.913     151.367     129.938
  O      161.181     152.445     130.813
  H      161.573     150.534     130.195
  H      161.104     151.667     128.903
  H      159.875     151.041     130.045
  P      160.298     153.767     130.609
  C      158.029     152.962     131.608
  O      159.198     153.750     131.776
  C      156.868     153.549     132.423
  O      155.666     152.767     132.154
  C      157.094     153.510     133.944
  O      156.367     154.605     134.526
  C      156.422     152.197     134.320
  O      156.225     152.110     135.712
  C      155.186     152.279     133.429
  N      152.687     148.506     135.806
  C      153.185     149.678     136.255
  N      153.827     150.637     135.561
  C      153.918     150.305     134.261
  C      153.450     149.151     133.655
  C      152.808     148.217     134.486
  N      152.307     147.021     134.031
  N      153.733     149.164     132.298
  C      154.359     150.307     132.093
  N      154.500     151.023     133.252
  O      159.457     153.446     129.286
  O      161.065     155.040     130.489
  H      155.655     152.840     136.031
  H      159.906     153.823     128.506
  H      153.054     149.865     137.319
  H      154.735     150.656     131.142
  H      154.460     153.007     133.808
  H      157.051     151.345     134.040
  H      158.146     153.575     134.228
  H      156.665     154.568     132.074
  H      158.244     151.943     131.949
  H      157.751     152.937     130.548
  H      151.876     146.400     134.697
  H      152.406     146.785     133.054
  P      157.179     155.751     135.313
  C      158.327     157.603     133.862
  O      157.133     157.098     134.443
  O      158.698     155.280     135.112
  O      156.856     155.893     136.763
  H      159.238     155.596     135.861
  H      158.109     158.500     133.322
  H      158.734     156.874     133.193
  H      159.037     157.815     134.634

 6  7  8  9  10  11  12  13  14  15  25  28  32  33  34  35 0
 6-311+G(2d,p)
 ****
 36  37  40 0
 6-311+G(2d,p)
 ****
 1  2  3  4  5  16  17  18  19  20  21  22  23  24 0
 3-21G
 ****
 26  27  29  30  31  38  39 41  42  43  44  45  46  47  48 0
 3-21G
 ****


