%nproc=1
%NoSave
%Mem=1900MB
#P OB98/GEN NMR

erre ene a

0 1
  C      -90.763     -16.130    -254.167
  O      -89.494     -16.145    -253.538
  P      -88.793     -14.746    -253.196
  C      -89.380     -15.002    -250.675
  O      -89.446     -14.192    -251.838
  C      -89.454     -14.135    -249.418
  O      -89.496     -14.997    -248.239
  C      -88.263     -13.182    -249.243
  O      -88.753     -11.991    -248.611
  C      -87.373     -13.942    -248.278
  O      -86.433     -13.112    -247.614
  C      -88.436     -14.563    -247.365
  N      -87.917     -15.666    -246.557
  C      -87.259     -15.338    -245.375
  O      -87.091     -14.186    -244.979
  N      -86.732     -16.388    -244.675
  C      -86.720     -17.695    -245.072
  O      -86.128     -18.573    -244.457
  C      -87.429     -17.983    -246.330
  C      -87.987     -16.972    -247.001
  O      -89.367     -13.764    -254.321
  O      -87.302     -14.780    -253.192
  H      -86.908     -12.319    -247.307
  H      -88.713     -13.644    -255.035
  H      -86.262     -16.172    -243.811
  H      -87.456     -19.011    -246.663
  H      -88.499     -17.153    -247.941
  H      -88.860     -13.797    -246.703
  H      -86.817     -14.711    -248.825
  H      -87.758     -12.936    -250.182
  H      -90.395     -13.571    -249.438
  H      -88.439     -15.555    -250.676
  H      -90.196     -15.734    -250.690
  P      -87.775     -10.717    -248.550
  C      -89.089      -9.500    -250.451
  O      -87.859     -10.003    -249.980
  O      -86.344     -11.439    -248.561
  O      -87.998      -9.847    -247.356
  H      -86.298     -12.169    -249.201
  H      -89.706      -9.111    -249.636
  H      -89.633     -10.295    -250.968
  H      -88.894      -8.690    -251.160
  H      -91.094     -17.135    -254.327
  H      -90.689     -15.625    -255.107
  H      -91.465     -15.619    -253.542

 3  4  5  6  7  8  9  10  11  12  13  23  28  29  30  31  32 0
 6-311+G(2d,p)
 ****
 33  34 0
 6-311+G(2d,p)
 ****
 1  2  14  15  16  17  18  19  20  21  22  24  25  26 0
 3-21G
 ****
 27  35  36  37  38  39  40  41  42  43  44  45 0
 3-21G
 ****


