%nproc=1
%NoSave
%Mem=1900MB
#P OB98/GEN NMR

erre ene a

0 1
  C        2.687    -690.438     -51.738
  O        3.593    -691.257     -51.023
  H        1.703    -690.918     -51.734
  H        3.013    -690.329     -52.780
  H        2.600    -689.456     -51.265
  P        5.116    -690.778     -50.893
  C        5.639    -692.068     -53.077
  O        5.679    -690.822     -52.398
  C        6.910    -692.257     -53.910
  O        6.830    -691.533     -55.160
  C        8.190    -691.751     -53.255
  O        8.650    -692.575     -52.201
  C        9.121    -691.763     -54.458
  O        9.518    -693.117     -54.740
  C        8.189    -691.204     -55.552
  N        8.335    -689.756     -55.737
  C        9.619    -689.290     -56.026
  O       10.573    -690.068     -56.109
  N        9.812    -687.932     -56.185
  C        8.812    -687.124     -56.041
  N        9.063    -685.789     -56.202
  C        7.443    -687.571     -55.714
  C        7.272    -688.886     -55.581
  O        5.946    -691.498     -49.874
  O        5.021    -689.197     -50.631
  H       10.031    -693.425     -53.976
  H        5.940    -688.852     -50.528
  H        6.650    -686.846     -55.572
  H        6.303    -689.288     -55.336
  H        8.375    -691.703     -56.516
  H       10.035    -691.184     -54.296
  H        8.070    -690.711     -52.920
  H        6.981    -693.328     -54.162
  H       10.005    -685.513     -56.420
  H        4.743    -692.085     -53.710
  H        8.357    -685.077     -56.029
  H        5.579    -692.888     -52.353
  P        9.764    -691.935     -51.216
  C       11.956    -691.925     -52.642
  O       10.830    -691.201     -52.160
  O       10.540    -693.228     -50.669
  O        9.223    -691.077     -50.111
  H       10.212    -693.474     -49.785
  H       12.557    -691.284     -53.252
  H       11.622    -692.760     -53.222
  H       12.536    -692.276     -51.814

 6  7  8  9  10  11  12  13  14  15  16  26  30  31  32  33  35 0
 6-311+G(2d,p)
 ****
 37  38 0
 6-311+G(2d,p)
 ****
 1  2  3  4  5  17  18  19  20  21  22  23  24  25 0
 3-21G
 ****
 27  28  29  34  36  39  40  41  42  43  44  45  46 0
 3-21G
 ****


