%nproc=1
%NoSave
%Mem=1900MB
#P OB98/GEN NMR

erre ene a

0 1
  C     -105.141    -252.993    -468.229
  O     -104.103    -253.950    -468.269
  H     -104.803    -252.136    -467.641
  H     -106.026    -253.422    -467.751
  H     -105.390    -252.654    -469.239
  P     -104.327    -255.216    -469.235
  C     -103.760    -253.839    -471.398
  O     -104.702    -254.604    -470.670
  C     -103.880    -254.115    -472.897
  O     -103.485    -255.487    -473.150
  C     -105.298    -253.927    -473.445
  O     -105.204    -253.406    -474.771
  C     -105.840    -255.347    -473.501
  O     -106.906    -255.477    -474.438
  C     -104.568    -256.139    -473.843
  N     -104.673    -257.549    -473.474
  C     -104.793    -258.466    -474.524
  O     -104.818    -258.073    -475.691
  N     -104.922    -259.799    -474.229
  C     -104.995    -260.180    -472.992
  N     -105.150    -261.516    -472.765
  C     -104.917    -259.245    -471.852
  C     -104.749    -257.958    -472.163
  O     -105.717    -255.796    -468.695
  O     -103.204    -256.199    -469.236
  H     -107.537    -254.738    -474.298
  H     -106.386    -255.112    -468.531
  H     -104.993    -259.610    -470.838
  H     -104.676    -257.205    -471.391
  H     -104.356    -256.082    -474.919
  H     -106.219    -255.642    -472.518
  H     -105.906    -253.266    -472.826
  H     -103.166    -253.476    -473.430
  H     -105.219    -262.118    -473.577
  H     -102.742    -254.070    -471.068
  H     -105.272    -261.916    -471.847
  H     -103.950    -252.781    -471.191
  P     -105.694    -251.910    -475.068
  C     -103.788    -251.030    -476.577
  O     -104.417    -250.971    -475.304
  O     -106.721    -251.366    -474.131
  O     -106.306    -252.028    -476.550
  H     -107.123    -251.492    -476.577
  H     -102.956    -250.357    -476.595
  H     -104.490    -250.750    -477.335
  H     -103.445    -252.027    -476.759

 6  7  8  9  10  11  12  13  14  15  16  26  30  31  32  33  35 0
 6-311+G(2d,p)
 ****
 37  38 0
 6-311+G(2d,p)
 ****
 1  2  3  4  5  17  18  19  20  21  22  23  24  25 0
 3-21G
 ****
 27  28  29  34  36  39  40  41  42  43  44  45  46 0
 3-21G
 ****


