%nproc=1
%NoSave
%Mem=1900MB
#P OB98/GEN NMR

erre ene a

0 1
  C      144.831    -178.095     455.001
  O      143.973    -177.177     455.649
  P      142.535    -176.904     454.970
  C      143.118    -174.419     454.459
  O      142.729    -175.687     453.932
  C      142.587    -173.283     453.585
  O      142.784    -172.025     454.286
  C      143.265    -173.151     452.205
  O      142.256    -172.713     451.289
  C      144.291    -172.062     452.461
  O      144.809    -171.459     451.288
  C      143.487    -171.145     453.378
  N      145.163    -166.309     453.642
  C      144.264    -166.911     452.820
  N      143.865    -168.201     452.819
  C      144.482    -168.890     453.795
  C      145.420    -168.421     454.688
  C      145.763    -167.060     454.583
  N      146.687    -166.449     455.424
  N      145.858    -169.427     455.534
  C      145.180    -170.491     455.146
  N      144.323    -170.208     454.112
  O      141.698    -176.244     456.164
  O      141.860    -178.119     454.404
  H      145.286    -170.636     451.516
  H      140.765    -176.556     456.149
  H      143.806    -166.277     452.066
  H      145.291    -171.482     455.570
  H      142.745    -170.561     452.830
  H      145.140    -172.491     453.001
  H      143.694    -174.090     451.844
  H      141.507    -173.421     453.455
  H      144.216    -174.366     454.458
  H      147.006    -165.532     455.136
  H      147.268    -167.057     455.978
  H      142.770    -174.330     455.484
  P      142.127    -173.451     449.867
  C      143.376    -171.542     448.671
  O      143.390    -172.901     449.035
  O      140.926    -172.624     449.200
  O      141.918    -174.921     449.908
  H      141.080    -171.660     449.254
  H      144.322    -171.277     448.205
  H      143.231    -170.909     449.561
  H      142.560    -171.348     447.955
  H      145.743    -178.181     455.553
  H      145.044    -177.747     454.012
  H      144.355    -179.052     454.947

 3  4  5  6  7  8  9  10  11  12  22  25  29  30  31  32 0
 6-311+G(2d,p)
 ****
 33  36  37 0
 6-311+G(2d,p)
 ****
 1  2  13  14  15  16  17  18  19  20  21  23  24  26 0
 3-21G
 ****
 27  28  34  35  38  39  40  41  42  43  44  45  46  47  48 0
 3-21G
 ****


