%nproc=1
%NoSave
%Mem=1900MB
#P OB98/GEN NMR

erre ene a

0 1
  C      -24.254    -301.737     -16.341
  O      -23.988    -303.083     -15.997
  H      -23.321    -301.168     -16.282
  H      -24.973    -301.310     -15.639
  H      -24.644    -301.674     -17.361
  P      -25.212    -304.116     -16.105
  C      -25.438    -306.642     -16.647
  O      -24.588    -305.504     -16.626
  C      -25.024    -307.603     -17.763
  O      -25.352    -306.998     -19.054
  C      -23.527    -307.945     -17.783
  O      -23.386    -309.306     -18.210
  C      -22.989    -307.043     -18.886
  O      -21.753    -307.513     -19.422
  C      -24.163    -307.086     -19.862
  N      -22.156    -305.732     -24.277
  C      -22.069    -306.920     -23.579
  N      -21.329    -307.906     -24.140
  N      -22.648    -307.129     -22.427
  C      -23.386    -306.070     -21.995
  C      -23.549    -304.839     -22.590
  C      -22.868    -304.613     -23.854
  O      -22.895    -303.576     -24.508
  N      -24.344    -304.024     -21.825
  C      -24.661    -304.758     -20.774
  N      -24.101    -306.005     -20.834
  O      -26.020    -303.567     -17.375
  O      -26.077    -304.216     -14.894
  H      -21.135    -307.660     -18.673
  H      -26.729    -302.961     -17.088
  H      -21.677    -305.619     -25.153
  H      -25.285    -304.439     -19.950
  H      -24.201    -308.022     -20.429
  H      -22.830    -306.029     -18.501
  H      -20.892    -307.835     -25.046
  H      -23.019    -307.803     -16.821
  H      -21.285    -308.799     -23.659
  H      -25.632    -308.515     -17.680
  H      -26.469    -306.316     -16.820
  H      -25.387    -307.151     -15.679
  P      -22.998    -310.408     -17.111
  C      -22.113    -312.853     -17.131
  O      -22.344    -311.657     -17.865
  O      -24.428    -310.975     -16.657
  O      -22.225    -309.870     -15.950
  H      -24.377    -311.306     -15.740
  H      -21.674    -313.587     -17.774
  H      -23.042    -313.222     -16.750
  H      -21.449    -312.649     -16.317

 6  7  8  9  10  11  12  13  14  15  26  29  33  34 0
 6-311+G(2d,p)
 ****
 36  38  39  40  41 0
 6-311+G(2d,p)
 ****
 1  2  3  4  5  16  17  18  19  20  21  22  23  24  25 0
 3-21G
 ****
 27  28  30  31  32  35  37  42  43  44  45  46  47 0
 3-21G
 ****
 48  49 0
 3-21G
 ****


