%nproc=1
%NoSave
%Mem=1900MB
#P OB98/GEN NMR

erre ene a

0 1
  C        2.478      38.167       0.449
  O        2.211      38.051      -0.937
  P        1.334      39.190      -1.646
  C        1.891      41.677      -2.283
  O        2.120      40.571      -1.430
  C        1.653      42.945      -1.457
  O        0.347      42.857      -0.825
  C        2.685      43.183      -0.347
  O        2.875      44.600      -0.241
  C        1.981      42.647       0.887
  O        2.504      43.183       2.092
  C        0.534      43.054       0.590
  N       -0.454      42.287       1.350
  C       -0.569      42.545       2.712
  O        0.123      43.362       3.316
  N       -1.506      41.799       3.380
  C       -2.269      40.801       2.850
  O       -3.079      40.153       3.499
  C       -2.069      40.541       1.417
  C       -1.194      41.289       0.744
  O        0.089      39.289      -0.648
  O        0.984      38.884      -3.062
  H        0.337      39.157       0.282
  H        2.370      44.148       2.076
  H       -1.633      41.996       4.362
  H       -2.646      39.746       0.962
  H       -1.028      41.115      -0.312
  H        0.398      44.124       0.786
  H        2.091      41.557       0.923
  H        3.641      42.694      -0.551
  H        1.625      43.801      -2.143
  H        1.010      41.484      -2.900
  H        2.750      41.802      -2.951
  P        4.327      45.140       0.194
  C        6.676      45.033      -0.956
  O        5.402      44.458      -0.777
  O        4.527      44.337       1.569
  O        4.422      46.620       0.369
  H        4.328      43.391       1.485
  H        7.351      44.274      -1.361
  H        7.087      45.397      -0.011
  H        6.609      45.859      -1.669
  H        3.070      37.335       0.769
  H        1.555      38.177       0.990
  H        3.010      39.076       0.635

 3  4  5  6  7  8  9  10  11  12  13  24  28  29  30  31  32 0
 6-311+G(2d,p)
 ****
 33  34 0
 6-311+G(2d,p)
 ****
 1  2  14  15  16  17  18  19  20  21  22  23  25  26  27 0
 3-21G
 ****
 35  36  37  38  39  40  41  42  43  44  45 0
 3-21G
 ****


