%nproc=1
%NoSave
%Mem=1900MB
#P OB98/GEN NMR

erre ene a

0 1
  C       43.249     199.456    -197.579
  O       44.440     198.758    -197.275
  H       42.533     199.330    -196.764
  H       43.481     200.520    -197.679
  H       42.816     199.099    -198.517
  P       44.398     197.157    -197.377
  C       46.891     196.812    -196.736
  O       45.531     196.611    -196.376
  C       47.764     196.909    -195.487
  O       47.605     198.237    -194.913
  C       47.424     195.883    -194.395
  O       48.646     195.437    -193.796
  C       46.647     196.699    -193.380
  O       46.714     196.154    -192.066
  C       47.318     198.062    -193.514
  N       45.969     200.603    -189.323
  C       47.027     199.811    -189.595
  N       47.340     199.212    -190.763
  C       46.467     199.558    -191.723
  C       45.347     200.361    -191.599
  C       45.096     200.885    -190.318
  N       43.985     201.638    -190.013
  N       44.668     200.431    -192.801
  C       45.354     199.664    -193.625
  N       46.448     199.114    -193.019
  O       45.022     196.891    -198.829
  O       43.052     196.537    -197.225
  H       46.054     195.438    -191.987
  H       44.315     196.918    -199.498
  H       47.703     199.622    -188.765
  H       45.088     199.451    -194.651
  H       48.262     198.125    -192.957
  H       45.593     196.748    -193.678
  H       46.856     195.020    -194.761
  H       48.814     196.817    -195.790
  H       46.975     197.745    -197.302
  H       43.834     201.878    -189.046
  H       43.271     201.763    -190.716
  H       47.222     195.983    -197.369
  P       48.708     193.918    -193.289
  C       49.766     192.959    -195.467
  O       49.894     193.169    -194.066
  O       47.387     193.267    -193.919
  O       48.736     193.775    -191.803
  H       47.035     192.578    -193.328
  H       50.634     192.451    -195.832
  H       49.671     193.903    -195.962
  H       48.897     192.365    -195.661

 6  7  8  9  10  11  12  13  14  15  25  28  32  33  34  35 0
 6-311+G(2d,p)
 ****
 36  39  40 0
 6-311+G(2d,p)
 ****
 1  2  3  4  5  16  17  18  19  20  21  22  23  24 0
 3-21G
 ****
 26  27  29  30  31  37  38  41  42  43  44  45  46  47 0
 3-21G
 ****
 48 0
 3-21G
 ****


