%nproc=1
%NoSave
%Mem=1900MB
#P OB98/GEN NMR

erre ene a

0 1
  C      277.391      22.274     -92.199
  O      277.024      22.986     -91.010
  P      276.467      24.488     -91.030
  C      274.080      23.545     -90.752
  O      274.917      24.475     -91.436
  C      272.915      24.245     -90.047
  O      273.390      25.044     -88.949
  C      272.119      25.200     -90.926
  O      271.257      24.492     -91.806
  C      271.401      26.041     -89.874
  O      270.226      25.375     -89.390
  C      272.472      26.139     -88.765
  N      273.161      27.421     -88.767
  C      272.667      28.396     -87.893
  O      271.662      28.179     -87.221
  N      273.313      29.611     -87.832
  C      274.312      29.850     -88.621
  N      274.916      31.062     -88.506
  C      274.810      28.883     -89.618
  C      274.192      27.700     -89.630
  O      277.299      25.432     -91.838
  O      276.446      24.946     -89.495
  H      269.757      26.019     -88.825
  H      276.600      25.906     -89.446
  H      275.628      29.132     -90.273
  H      274.502      26.924     -90.324
  H      272.013      25.985     -87.780
  H      271.086      27.014     -90.257
  H      272.803      25.839     -91.499
  H      272.258      23.464     -89.636
  H      274.556      31.702     -87.811
  H      274.691      23.021     -90.006
  H      275.702      31.351     -89.071
  H      273.705      22.812     -91.473
  P      271.805      24.004     -93.227
  C      271.587      21.468     -92.867
  O      272.473      22.561     -93.014
  O      272.639      24.988     -93.973
  O      270.471      23.651     -94.044
  H      270.626      23.824     -94.993
  H      272.117      20.551     -93.132
  H      270.713      21.579     -93.514
  H      271.263      21.405     -91.823
  H      277.733      21.295     -91.937
  H      278.173      22.802     -92.704
  H      276.541      22.194     -92.844

 3  4  5  6  7  8  9  10  11  12  13  23  27  28  29  30  32 0
 6-311+G(2d,p)
 ****
 34  35 0
 6-311+G(2d,p)
 ****
 1  2  14  15  16  17  18  19  20  21  22  24  25  26 0
 3-21G
 ****
 31  33  36  37  38  39  40  41  42  43  44  45  46 0
 3-21G
 ****


