%nproc=1
%NoSave
%Mem=1900MB
#P OB98/GEN NMR

erre ene a

0 1
  C      469.416    -147.390     -64.677
  O      468.074    -147.736     -64.400
  H      469.694    -147.729     -65.679
  H      469.516    -146.303     -64.630
  H      470.082    -147.839     -63.934
  P      467.703    -149.297     -64.458
  C      465.193    -148.791     -64.873
  O      466.155    -149.425     -64.037
  C      463.793    -148.966     -64.281
  O      463.398    -150.352     -64.446
  C      463.681    -148.612     -62.788
  O      462.694    -147.594     -62.596
  C      463.182    -149.893     -62.132
  O      462.201    -149.661     -61.120
  C      462.608    -150.688     -63.299
  N      459.821    -154.727     -61.917
  C      459.468    -153.540     -62.461
  N      460.264    -152.549     -62.904
  C      461.562    -152.888     -62.766
  C      462.074    -154.066     -62.259
  C      461.137    -155.010     -61.795
  N      461.497    -156.193     -61.189
  N      463.457    -154.047     -62.266
  C      463.771    -152.855     -62.741
  N      462.659    -152.113     -63.036
  O      468.483    -149.905     -63.196
  O      468.073    -149.991     -65.724
  H      462.558    -148.963     -60.538
  H      468.967    -150.707     -63.470
  H      458.396    -153.360     -62.543
  H      464.779    -152.463     -62.844
  H      461.562    -150.416     -63.512
  H      464.034    -150.413     -61.676
  H      464.634    -148.296     -62.356
  H      463.091    -148.361     -64.870
  H      465.217    -149.248     -65.869
  H      460.770    -156.756     -60.788
  H      462.477    -156.359     -61.002
  H      465.445    -147.731     -64.969
  P      463.053    -146.436     -61.534
  C      461.063    -145.636     -60.055
  O      461.728    -145.557     -61.312
  O      464.007    -145.462     -62.378
  O      463.719    -146.936     -60.293
  H      464.609    -144.985     -61.776
  H      460.205    -144.997     -60.065
  H      461.730    -145.325     -59.278
  H      460.754    -146.645     -59.878

 6  7  8  9  10  11  12  13  14  15  25  28  32  33  34  35 0
 6-311+G(2d,p)
 ****
 36  39  40 0
 6-311+G(2d,p)
 ****
 1  2  3  4  5  16  17  18  19  20  21  22  23  24 0
 3-21G
 ****
 26  27  29  30  31  37  38  41  42  43  44  45  46  47  48 0
 3-21G
 ****


