%nproc=1
%NoSave
%Mem=1900MB
#P OB98/GEN NMR

erre ene a

0 1
  C     -256.190     553.904     259.783
  O     -255.472     555.114     259.669
  H     -256.463     553.561     258.784
  H     -257.107     554.062     260.361
  H     -255.579     553.132     260.264
  P     -254.837     555.769     260.988
  C     -255.567     557.540     262.713
  O     -255.974     556.693     261.642
  C     -256.694     558.514     263.060
  O     -256.847     559.499     262.014
  C     -258.066     557.849     263.209
  O     -258.156     557.162     264.443
  C     -258.977     559.062     263.068
  O     -259.036     559.805     264.297
  C     -258.246     559.875     261.973
  N     -258.813     559.665     260.635
  C     -260.131     560.090     260.464
  O     -260.804     560.596     261.357
  N     -260.664     559.855     259.217
  C     -260.051     559.179     258.201
  O     -260.642     558.803     257.193
  C     -258.643     558.832     258.422
  C     -258.094     559.079     259.612
  O     -253.509     556.429     260.811
  O     -254.749     554.538     262.012
  H     -253.835     554.205     262.037
  H     -259.740     560.470     264.184
  H     -261.635     560.106     259.095
  H     -258.101     558.355     257.611
  H     -257.066     558.799     259.806
  H     -258.288     560.949     262.202
  H     -259.999     558.785     262.809
  H     -258.245     557.170     262.366
  H     -256.421     559.041     263.983
  H     -254.688     558.103     262.403
  H     -255.312     556.915     263.576
  P     -259.206     555.970     264.640
  C     -261.662     555.754     265.341
  O     -260.674     556.604     264.791
  O     -258.848     554.985     265.712
  O     -259.269     555.249     263.205
  H     -259.091     554.293     263.320
  H     -262.594     556.278     265.394
  H     -261.366     555.452     266.324
  H     -261.774     554.889     264.721

 6  7  8  9  10  11  12  13  14  15  16  27  31  32  33  34  35 0
 6-311+G(2d,p)
 ****
 36  37 0
 6-311+G(2d,p)
 ****
 1  2  3  4  5  17  18  19  20  21  22  23  24  25 0
 3-21G
 ****
 26  28  29  30  38  39  40  41  42  43  44  45 0
 3-21G
 ****


