%nproc=1
%NoSave
%Mem=1900MB
#P OB98/GEN NMR

erre ene a

0 1
  C     -137.653      -3.306     -29.821
  O     -137.992      -4.675     -29.793
  P     -137.156      -5.757     -30.626
  C     -134.691      -6.506     -30.629
  O     -135.601      -5.445     -30.358
  C     -133.355      -5.944     -31.134
  O     -133.586      -5.275     -32.414
  C     -132.735      -4.916     -30.167
  O     -131.379      -5.188     -29.807
  C     -132.968      -3.597     -30.886
  O     -132.107      -2.554     -30.467
  C     -132.876      -4.022     -32.354
  N     -133.433      -3.023     -33.263
  C     -132.560      -2.445     -34.180
  O     -131.368      -2.726     -34.280
  N     -133.087      -1.460     -34.968
  C     -134.335      -0.926     -34.855
  O     -134.709       0.025     -35.529
  C     -135.199      -1.551     -33.842
  C     -134.728      -2.569     -33.119
  O     -137.518      -5.874     -32.068
  O     -137.373      -7.105     -29.788
  H     -132.389      -2.272     -29.576
  H     -137.064      -7.068     -28.866
  H     -132.466      -1.031     -35.637
  H     -136.192      -1.141     -33.722
  H     -135.342      -3.049     -32.364
  H     -131.843      -4.219     -32.650
  H     -133.992      -3.272     -30.664
  H     -133.266      -4.906     -29.209
  H     -132.681      -6.787     -31.301
  H     -135.121      -7.151     -31.397
  H     -134.549      -7.113     -29.728
  P     -130.643      -4.619     -28.506
  C     -130.871      -5.007     -25.944
  O     -131.475      -5.080     -27.220
  O     -130.303      -3.166     -28.551
  O     -129.312      -5.506     -28.412
  H     -128.605      -4.989     -27.985
  H     -131.312      -5.776     -25.304
  H     -131.075      -4.027     -25.504
  H     -129.791      -5.167     -26.000
  H     -138.332      -2.758     -29.201
  H     -137.715      -2.944     -30.826
  H     -136.655      -3.178     -29.457

 3  4  5  6  7  8  9  10  11  12  13  23  28  29  30  31  32 0
 6-311+G(2d,p)
 ****
 33  34 0
 6-311+G(2d,p)
 ****
 1  2  14  15  16  17  18  19  20  21  22  24  25  26  27 0
 3-21G
 ****
 35  36  37  38  39  40  41  42  43  44  45 0
 3-21G
 ****


