%nproc=1
%NoSave
%Mem=1900MB
#P OB98/GEN NMR

erre ene a

0 1
  C      457.489     686.596    -211.460
  O      458.890     686.750    -211.581
  P      459.447     688.220    -211.919
  C      461.610     688.094    -210.476
  O      461.042     688.161    -211.781
  C      462.911     687.286    -210.505
  O      462.610     685.874    -210.572
  C      463.804     687.572    -211.708
  O      464.486     688.810    -211.560
  C      464.703     686.339    -211.687
  O      465.723     686.487    -210.681
  C      463.711     685.231    -211.272
  N      464.841     681.871    -214.977
  C      465.598     682.452    -214.013
  N      465.232     683.351    -213.082
  C      463.928     683.647    -213.189
  C      463.039     683.165    -214.129
  C      463.534     682.234    -215.059
  N      462.748     681.656    -216.041
  N      461.786     683.717    -213.954
  C      461.917     684.517    -212.911
  N      463.189     684.496    -212.412
  O      458.991     689.081    -210.653
  O      458.941     688.799    -213.204
  H      466.213     685.632    -210.642
  H      458.770     689.996    -210.914
  H      466.650     682.135    -213.995
  H      461.123     685.119    -212.484
  H      464.162     684.506    -210.585
  H      465.202     686.147    -212.639
  H      463.214     687.587    -212.630
  H      463.453     687.486    -209.572
  H      460.912     687.613    -209.794
  H      463.222     681.116    -216.756
  H      461.826     682.030    -216.192
  H      461.789     689.117    -210.114
  P      464.207     689.938    -212.659
  C      465.008     691.656    -210.924
  O      465.193     691.146    -212.236
  O      462.770     690.489    -212.206
  O      464.316     689.487    -214.076
  H      462.733     690.675    -211.255
  H      465.771     692.427    -210.739
  H      465.124     690.863    -210.178
  H      464.020     692.114    -210.828
  H      457.260     685.575    -211.235
  H      457.019     686.872    -212.381
  H      457.128     687.224    -210.673

 3  4  5  6  7  8  9  10  11  12  22  25  29  30  31  32 0
 6-311+G(2d,p)
 ****
 33  36  37 0
 6-311+G(2d,p)
 ****
 1  2  13  14  15  16  17  18  19  20  21  23  24  26 0
 3-21G
 ****
 27  28  34  35  38  39  40  41  42  43  44  45  46  47  48 0
 3-21G
 ****


