%nproc=1
%NoSave
%Mem=1900MB
#P OB98/GEN NMR

erre ene a

0 1
  C     -227.798     -41.436    -228.192
  O     -229.195     -41.190    -228.430
  P     -229.781     -40.690    -229.838
  C     -231.804     -41.328    -231.324
  O     -231.261     -41.289    -230.006
  C     -232.815     -42.485    -231.465
  O     -232.110     -43.755    -231.437
  C     -233.841     -42.598    -230.339
  O     -234.834     -41.591    -230.421
  C     -234.350     -44.018    -230.562
  O     -235.386     -44.059    -231.557
  C     -233.100     -44.759    -231.075
  N     -232.557     -45.701    -230.108
  C     -232.434     -47.026    -230.538
  O     -232.851     -47.365    -231.645
  N     -231.846     -47.938    -229.681
  C     -231.522     -47.582    -228.473
  N     -230.933     -48.519    -227.688
  C     -231.759     -46.220    -227.943
  C     -232.267     -45.340    -228.808
  O     -228.884     -40.975    -231.008
  O     -230.021     -39.114    -229.667
  H     -229.966     -38.680    -230.535
  H     -235.729     -44.978    -231.576
  H     -231.507     -45.977    -226.927
  H     -232.457     -44.320    -228.505
  H     -233.332     -45.284    -232.008
  H     -234.772     -44.442    -229.640
  H     -233.323     -42.539    -229.374
  H     -233.313     -42.383    -232.436
  H     -230.772     -49.438    -228.089
  H     -230.986     -41.479    -232.034
  H     -230.620     -48.338    -226.742
  H     -232.286     -40.362    -231.547
  P     -234.682     -40.340    -229.433
  C     -234.151     -37.814    -229.742
  O     -234.636     -39.009    -230.325
  O     -233.188     -40.478    -228.871
  O     -235.677     -40.304    -228.313
  H     -233.158     -40.239    -227.922
  H     -233.735     -37.180    -230.531
  H     -233.381     -38.006    -228.987
  H     -234.991     -37.282    -229.273
  H     -227.660     -41.760    -227.182
  H     -227.244     -40.535    -228.357
  H     -227.451     -42.196    -228.861

 3  4  5  6  7  8  9  10  11  12  13  24  27  28  29  30  32 0
 6-311+G(2d,p)
 ****
 34  35 0
 6-311+G(2d,p)
 ****
 1  2  14  15  16  17  18  19  20  21  22  23  25  26 0
 3-21G
 ****
 31  33  36  37  38  39  40  41  42  43  44  45  46 0
 3-21G
 ****


