%nproc=1
%NoSave
%Mem=1900MB
#P OB98/GEN NMR

erre ene a

0 1
  C     -539.417    1196.085    -542.487
  O     -540.104    1196.797    -541.464
  P     -541.674    1197.068    -541.582
  C     -542.532    1195.790    -539.512
  O     -542.341    1197.054    -540.116
  C     -542.697    1195.952    -537.991
  O     -541.407    1196.083    -537.340
  C     -543.455    1197.213    -537.602
  O     -544.837    1197.244    -537.913
  C     -543.054    1197.415    -536.161
  O     -543.841    1196.602    -535.290
  C     -541.592    1196.915    -536.174
  N     -540.589    1198.009    -536.152
  C     -539.853    1198.106    -534.958
  O     -540.054    1197.374    -533.986
  N     -538.933    1199.113    -534.902
  C     -538.705    1200.026    -535.930
  O     -537.865    1200.933    -535.813
  C     -539.518    1199.869    -537.121
  C     -540.432    1198.867    -537.182
  O     -542.368    1196.234    -542.610
  O     -541.726    1198.621    -541.986
  H     -544.695    1197.093    -535.144
  H     -542.421    1198.728    -542.675
  H     -538.398    1199.197    -534.073
  H     -539.352    1200.571    -537.933
  H     -541.014    1198.732    -538.088
  H     -541.391    1196.245    -535.309
  H     -543.163    1198.446    -535.838
  H     -543.021    1198.066    -538.172
  H     -543.163    1195.055    -537.597
  H     -541.720    1195.101    -539.745
  H     -543.429    1195.323    -539.955
  P     -545.714    1198.597    -537.862
  C     -546.689    1198.491    -540.261
  O     -546.947    1198.423    -538.862
  O     -544.966    1199.902    -537.890
  O     -546.441    1198.428    -536.436
  H     -546.553    1199.338    -536.065
  H     -547.627    1198.393    -540.803
  H     -546.026    1197.657    -540.562
  H     -546.260    1199.440    -540.526
  H     -538.381    1196.004    -542.231
  H     -539.516    1196.609    -543.414
  H     -539.838    1195.106    -542.584

 3  4  5  6  7  8  9  10  11  12  13  23  28  29  30  31  32 0
 6-311+G(2d,p)
 ****
 33  34 0
 6-311+G(2d,p)
 ****
 1  2  14  15  16  17  18  19  20  21  22  24  25  26  27 0
 3-21G
 ****
 35  36  37  38  39  40  41  42  43  44  45 0
 3-21G
 ****


