%nproc=1
%NoSave
%Mem=1900MB
#P OB98/GEN NMR

erre ene a

0 1
  C       -4.605    -541.637    -244.701
  O       -3.356    -541.643    -244.030
  H       -4.630    -540.789    -245.391
  H       -5.422    -541.535    -243.985
  H       -4.728    -542.562    -245.278
  P       -3.139    -542.808    -242.948
  C       -1.192    -543.906    -244.272
  O       -2.506    -544.047    -243.751
  C       -0.201    -544.723    -243.450
  O       -0.705    -546.056    -243.211
  C        1.167    -544.886    -244.105
  O        1.989    -543.753    -243.862
  C        1.681    -546.140    -243.399
  O        2.218    -545.836    -242.091
  C        0.415    -546.984    -243.285
  N        2.256    -551.085    -245.588
  C        2.675    -550.440    -244.446
  N        3.790    -550.937    -243.854
  N        2.071    -549.405    -243.925
  C        0.998    -549.010    -244.648
  C        0.464    -549.565    -245.785
  C        1.139    -550.735    -246.326
  O        0.773    -551.390    -247.308
  N       -0.648    -548.889    -246.206
  C       -0.770    -547.897    -245.345
  N        0.210    -547.914    -244.394
  O       -4.626    -543.307    -242.619
  O       -2.410    -542.404    -241.708
  H        2.384    -546.670    -241.614
  H       -4.662    -543.622    -241.695
  H        2.755    -551.890    -245.930
  H       -1.543    -547.141    -245.376
  H        0.393    -547.586    -242.363
  H        2.484    -546.612    -243.963
  H        4.460    -551.488    -244.367
  H        1.071    -545.085    -245.177
  H        4.114    -550.456    -243.024
  H       -0.101    -544.232    -242.471
  H       -0.903    -542.845    -244.232
  H       -1.181    -544.235    -245.315
  P        2.799    -543.143    -245.107
  C        1.145    -541.258    -245.815
  O        1.710    -542.539    -246.115
  O        3.332    -544.440    -245.886
  O        3.917    -542.224    -244.737
  H        4.054    -544.201    -246.489
  H        0.440    -540.992    -246.575
  H        1.923    -540.525    -245.779
  H        0.650    -541.300    -244.867

 6  7  8  9  10  11  12  13  14  15  26  29  33  34 0
 6-311+G(2d,p)
 ****
 36  38  39  40  41 0
 6-311+G(2d,p)
 ****
 1  2  3  4  5  16  17  18  19  20  21  22  23  24  25 0
 3-21G
 ****
 27  28  30  31  32  35  37  42  43  44  45  46  47 0
 3-21G
 ****
 48  49 0
 3-21G
 ****


