%nproc=1
%NoSave
%Mem=1900MB
#P OB98/GEN NMR

erre ene a

0 1
  C       62.991     -43.262      35.713
  O       61.582     -43.069      35.712
  P       60.968     -42.076      36.816
  C       61.448     -41.808      39.355
  O       61.405     -42.685      38.234
  C       61.481     -42.604      40.656
  O       62.537     -43.583      40.614
  C       61.744     -41.769      41.900
  O       60.571     -41.134      42.380
  C       62.202     -42.841      42.875
  O       61.061     -43.545      43.398
  C       63.024     -43.766      41.971
  N       67.193     -43.793      44.929
  C       65.898     -44.057      45.198
  N       64.843     -44.017      44.358
  C       65.227     -43.621      43.132
  C       66.505     -43.282      42.720
  C       67.525     -43.390      43.679
  N       68.850     -43.149      43.395
  N       66.506     -42.924      41.390
  C       65.257     -43.053      41.002
  N       64.446     -43.483      42.016
  O       59.399     -42.388      36.748
  O       61.265     -40.632      36.601
  H       60.778     -44.178      42.709
  H       58.892     -41.625      37.085
  H       65.680     -44.348      46.222
  H       64.896     -42.859      40.001
  H       62.890     -44.823      42.223
  H       62.746     -42.433      43.732
  H       62.559     -41.053      41.734
  H       60.527     -43.139      40.748
  H       60.556     -41.174      39.346
  H       69.537     -43.424      44.079
  H       69.117     -43.046      42.422
  H       62.333     -41.170      39.275
  P       60.773     -39.780      43.221
  C       62.510     -39.216      45.068
  O       61.674     -40.193      44.477
  O       59.323     -39.524      43.848
  O       61.254     -38.624      42.409
  H       59.196     -38.574      44.034
  H       62.801     -39.558      46.065
  H       61.990     -38.259      45.167
  H       63.412     -39.085      44.463
  H       63.258     -43.942      34.931
  H       63.295     -43.665      36.656
  H       63.480     -42.324      35.552

 3  4  5  6  7  8  9  10  11  12  22  25  29  30  31  32 0
 6-311+G(2d,p)
 ****
 33  36  37 0
 6-311+G(2d,p)
 ****
 1  2  13  14  15  16  17  18  19  20  21  23  24  26 0
 3-21G
 ****
 27  28  34  35  38  39  40  41  42  43  44  45  46  47  48 0
 3-21G
 ****


