%nproc=1
%NoSave
%Mem=1900MB
#P OB98/GEN NMR

erre ene a

0 1
  C     -544.278      41.242     303.926
  O     -545.538      41.559     304.529
  P     -546.890      41.181     303.729
  C     -547.887      39.623     305.592
  O     -548.031      40.816     304.797
  C     -548.560      39.825     306.946
  O     -547.730      40.606     307.825
  C     -549.889      40.603     306.882
  O     -550.956      39.768     306.423
  C     -550.049      41.038     308.335
  O     -550.628      39.970     309.138
  C     -548.601      41.312     308.770
  N     -548.279      42.730     308.825
  C     -548.690      43.411     309.955
  O     -549.348      42.881     310.874
  N     -548.366      44.744     309.998
  C     -547.745      45.470     309.041
  O     -547.491      46.653     309.133
  C     -547.403      44.705     307.821
  C     -547.680      43.416     307.762
  O     -546.529      39.757     303.111
  O     -547.302      42.144     302.642
  H     -550.908      40.390     309.982
  H     -547.039      39.605     302.270
  H     -548.633      45.260     310.844
  H     -546.927      45.252     307.012
  H     -547.454      42.834     306.870
  H     -548.389      40.875     309.738
  H     -550.708      41.915     308.450
  H     -549.772      41.500     306.248
  H     -548.718      38.845     307.409
  H     -546.834      39.441     305.747
  H     -548.343      38.794     305.066
  P     -552.332      40.533     306.043
  C     -552.552      39.386     303.701
  O     -553.062      39.575     305.004
  O     -551.789      41.767     305.165
  O     -553.105      40.935     307.267
  H     -551.000      41.519     304.640
  H     -551.469      39.424     303.712
  H     -552.959      40.136     303.038
  H     -552.885      38.407     303.338
  H     -543.485      41.552     304.573
  H     -544.193      41.751     302.989
  H     -544.215      40.186     303.765

 3  4  5  6  7  8  9  10  11  12  13  23  28  29  30  31  32 0
 6-311+G(2d,p)
 ****
 33  34 0
 6-311+G(2d,p)
 ****
 1  2  14  15  16  17  18  19  20  21  22  24  25  26 0
 3-21G
 ****
 27  35  36  37  38  39  40  41  42  43  44  45 0
 3-21G
 ****


