%nproc=1
%NoSave
%Mem=1900MB
#P OB98/GEN NMR

erre ene a

0 1
  C       55.455     164.535     -13.148
  O       54.289     163.789     -12.865
  H       56.122     164.478     -12.283
  H       55.200     165.583     -13.323
  H       55.975     164.128     -14.018
  P       53.213     163.569     -14.032
  C       51.522     164.562     -12.360
  O       51.971     164.529     -13.709
  C       51.324     166.009     -11.915
  O       52.605     166.659     -11.761
  C       50.553     166.860     -12.915
  O       49.170     166.573     -12.888
  C       50.932     168.257     -12.453
  O       50.126     168.671     -11.343
  C       52.403     168.066     -12.018
  N       53.341     168.560     -13.026
  C       53.669     169.910     -12.951
  O       53.225     170.671     -12.094
  N       54.489     170.378     -13.942
  C       54.883     169.677     -15.046
  O       55.405     170.201     -16.024
  C       54.559     168.243     -15.040
  C       53.804     167.760     -14.052
  O       52.859     162.149     -14.325
  O       53.888     164.275     -15.303
  H       54.269     163.590     -15.885
  H       50.433     169.573     -11.113
  H       54.698     171.367     -13.918
  H       54.916     167.638     -15.863
  H       53.522     166.711     -14.042
  H       52.594     168.593     -11.075
  H       50.805     168.992     -13.249
  H       50.954     166.700     -13.924
  H       50.824     166.006     -10.938
  H       52.279     164.087     -11.726
  H       50.586     163.999     -12.281
  P       48.473     165.837     -14.128
  C       46.627     167.619     -13.961
  O       47.474     166.876     -14.832
  O       47.876     164.504     -13.824
  O       49.650     165.697     -15.207
  H       49.682     164.772     -15.519
  H       46.009     168.275     -14.538
  H       47.226     168.195     -13.287
  H       46.010     166.946     -13.404

 6  7  8  9  10  11  12  13  14  15  16  27  31  32  33  34  35 0
 6-311+G(2d,p)
 ****
 36  37 0
 6-311+G(2d,p)
 ****
 1  2  3  4  5  17  18  19  20  21  22  23  24  25 0
 3-21G
 ****
 26  28  29  30  38  39  40  41  42  43  44  45 0
 3-21G
 ****


