%nproc=1
%NoSave
%Mem=1900MB
#P OB98/GEN NMR

erre ene a

0 1
  C     -572.421     239.190     450.876
  O     -573.010     237.945     451.133
  H     -572.803     239.920     451.590
  H     -572.679     239.535     449.872
  H     -571.329     239.134     450.985
  P     -572.612     236.694     450.204
  C     -571.788     235.401     452.310
  O     -572.692     235.418     451.194
  C     -572.527     234.964     453.574
  O     -573.184     236.084     454.207
  C     -573.647     233.935     453.348
  O     -573.162     232.632     453.067
  C     -574.354     234.027     454.689
  O     -573.590     233.327     455.691
  C     -574.324     235.556     454.940
  N     -575.580     236.221     454.501
  C     -576.639     236.185     455.401
  O     -576.535     235.631     456.488
  N     -577.843     236.769     455.019
  C     -577.951     237.295     453.825
  N     -579.152     237.858     453.521
  C     -576.842     237.333     452.852
  C     -575.697     236.784     453.243
  O     -571.333     236.836     449.435
  O     -573.900     236.450     449.277
  H     -573.427     232.424     455.357
  H     -573.696     235.688     448.677
  H     -577.011     237.761     451.874
  H     -574.846     236.765     452.575
  H     -574.181     235.775     455.994
  H     -575.346     233.589     454.685
  H     -574.335     234.284     452.567
  H     -571.770     234.593     454.287
  H     -579.883     237.819     454.207
  H     -571.360     236.403     452.416
  H     -579.361     238.226     452.581
  H     -570.983     234.678     452.108
  P     -573.929     231.828     451.895
  C     -572.176     232.611     450.121
  O     -572.826     231.531     450.757
  O     -574.869     232.942     451.236
  O     -574.710     230.619     452.351
  H     -575.801     232.872     451.583
  H     -571.482     232.234     449.399
  H     -571.652     233.192     450.851
  H     -572.902     233.225     449.631

 6  7  8  9  10  11  12  13  14  15  16  26  30  31  32  33  35 0
 6-311+G(2d,p)
 ****
 37  38 0
 6-311+G(2d,p)
 ****
 1  2  3  4  5  17  18  19  20  21  22  23  24  25 0
 3-21G
 ****
 27  28  29  34  36  39  40  41  42  43  44  45  46 0
 3-21G
 ****


