%nproc=1
%NoSave
%Mem=1900MB
#P OB98/GEN NMR

erre ene a

0 1
  C      -77.212      85.847     218.310
  O      -77.039      84.455     218.448
  H      -77.118      86.103     217.248
  H      -76.439      86.385     218.861
  H      -78.205      86.152     218.655
  P      -77.090      83.798     219.914
  C      -79.122      82.350     219.300
  O      -78.631      83.388     220.144
  C      -80.103      81.445     220.046
  O      -81.255      82.228     220.472
  C      -80.621      80.265     219.212
  O      -80.550      79.060     219.981
  C      -82.080      80.622     218.958
  O      -82.891      79.481     218.698
  C      -82.413      81.400     220.239
  N      -83.637      82.179     220.102
  C      -84.466      82.227     221.228
  O      -84.145      81.647     222.270
  N      -85.661      82.898     221.143
  C      -86.021      83.419     220.010
  N      -87.235      84.042     219.983
  C      -85.190      83.363     218.787
  C      -84.023      82.735     218.903
  O      -76.492      84.640     220.993
  O      -76.366      82.378     219.753
  H      -82.673      79.134     217.802
  H      -76.048      82.083     220.639
  H      -85.544      83.812     217.870
  H      -83.349      82.641     218.064
  H      -82.526      80.716     221.091
  H      -82.143      81.286     218.087
  H      -80.074      80.127     218.279
  H      -79.616      81.094     220.970
  H      -87.776      84.048     220.837
  H      -78.267      81.767     218.932
  H      -87.630      84.465     219.152
  H      -79.636      82.812     218.454
  P      -79.115      78.714     220.624
  C      -79.704      79.512     223.023
  O      -78.884      79.693     221.880
  O      -78.076      79.249     219.518
  O      -78.922      77.261     220.894
  H      -77.640      78.493     219.083
  H      -79.437      80.229     223.771
  H      -79.563      78.524     223.410
  H      -80.730      79.646     222.751

 6  7  8  9  10  11  12  13  14  15  16  26  30  31  32  33  35 0
 6-311+G(2d,p)
 ****
 37  38 0
 6-311+G(2d,p)
 ****
 1  2  3  4  5  17  18  19  20  21  22  23  24  25 0
 3-21G
 ****
 27  28  29  34  36  39  40  41  42  43  44  45  46 0
 3-21G
 ****


