%nproc=1
%NoSave
%Mem=1900MB
#P OB98/GEN NMR

erre ene a

0 1
  C     -727.629     -80.372    -430.423
  O     -727.847     -81.527    -429.648
  H     -728.082     -79.511    -429.921
  H     -728.083     -80.468    -431.413
  H     -726.555     -80.184    -430.533
  P     -727.406     -82.942    -430.253
  C     -729.538     -82.797    -431.713
  O     -728.746     -83.592    -430.849
  C     -731.016     -83.139    -431.523
  O     -731.235     -84.551    -431.712
  C     -731.529     -82.824    -430.126
  O     -731.727     -81.432    -429.958
  C     -732.784     -83.679    -430.072
  O     -733.875     -83.048    -430.755
  C     -732.315     -84.943    -430.826
  N     -731.895     -86.020    -429.930
  C     -732.890     -86.539    -429.095
  O     -734.036     -86.098    -429.142
  N     -732.540     -87.536    -428.210
  C     -731.319     -87.980    -428.171
  N     -731.042     -88.958    -427.277
  C     -730.249     -87.464    -429.052
  C     -730.606     -86.490    -429.903
  O     -726.618     -83.851    -429.355
  O     -726.588     -82.548    -431.574
  H     -733.526     -82.777    -431.621
  H     -725.636     -82.431    -431.361
  H     -729.254     -87.870    -428.998
  H     -729.880     -86.060    -430.577
  H     -733.130     -85.323    -431.478
  H     -733.097     -83.869    -429.050
  H     -730.833     -83.206    -429.371
  H     -731.600     -82.602    -432.282
  H     -731.802     -89.272    -426.686
  H     -729.235     -83.026    -432.734
  H     -730.160     -89.438    -427.217
  H     -729.368     -81.735    -431.528
  P     -731.049     -80.654    -428.734
  C     -732.240     -82.065    -426.944
  O     -732.078     -80.781    -427.514
  O     -730.593     -79.259    -429.047
  O     -729.857     -81.631    -428.300
  H     -729.112     -81.598    -428.945
  H     -732.949     -82.013    -426.145
  H     -731.300     -82.408    -426.565
  H     -732.593     -82.745    -427.691

 6  7  8  9  10  11  12  13  14  15  16  26  30  31  32  33  35 0
 6-311+G(2d,p)
 ****
 37  38 0
 6-311+G(2d,p)
 ****
 1  2  3  4  5  17  18  19  20  21  22  23  24  25 0
 3-21G
 ****
 27  28  29  34  36  39  40  41  42  43  44  45  46 0
 3-21G
 ****


