%nproc=1
%NoSave
%Mem=1900MB
#P OB98/GEN NMR

erre ene a

0 1
  C     -797.648    -775.185    -355.752
  O     -797.487    -776.561    -356.055
  H     -798.628    -774.864    -356.099
  H     -796.880    -774.599    -356.266
  H     -797.582    -775.026    -354.672
  P     -796.086    -777.228    -355.651
  C     -797.198    -779.431    -356.404
  O     -796.045    -778.601    -356.485
  C     -796.882    -780.737    -355.679
  O     -796.013    -781.538    -356.513
  C     -796.153    -780.521    -354.342
  O     -796.633    -781.474    -353.389
  C     -794.702    -780.805    -354.674
  O     -793.961    -781.232    -353.532
  C     -794.838    -781.869    -355.761
  N     -791.260    -784.897    -357.782
  C     -792.370    -785.168    -357.070
  N     -793.284    -784.300    -356.587
  C     -792.978    -783.037    -356.940
  C     -791.880    -782.617    -357.672
  C     -790.991    -783.606    -358.105
  N     -789.839    -783.353    -358.809
  N     -791.901    -781.233    -357.805
  C     -792.983    -780.844    -357.180
  N     -793.670    -781.893    -356.630
  O     -795.824    -777.361    -354.190
  O     -795.048    -776.308    -356.460
  H     -794.086    -780.564    -352.816
  H     -795.359    -776.135    -357.360
  H     -792.557    -786.223    -356.846
  H     -793.332    -779.808    -357.086
  H     -794.962    -782.878    -355.362
  H     -794.231    -779.908    -355.066
  H     -796.281    -779.503    -353.950
  H     -797.805    -781.302    -355.543
  H     -797.572    -779.660    -357.412
  H     -789.263    -784.123    -359.081
  H     -789.626    -782.389    -359.071
  H     -797.973    -778.876    -355.866
  P     -797.794    -781.044    -352.380
  C     -797.776    -783.496    -351.559
  O     -797.882    -782.122    -351.200
  O     -799.095    -780.680    -353.012
  O     -797.149    -779.775    -351.640
  H     -797.856    -779.110    -351.481
  H     -797.851    -784.101    -350.680
  H     -796.832    -783.669    -352.032
  H     -798.566    -783.750    -352.235

 6  7  8  9  10  11  12  13  14  15  25  28  32  33  34  35 0
 6-311+G(2d,p)
 ****
 36  39  40 0
 6-311+G(2d,p)
 ****
 1  2  3  4  5  16  17  18  19  20  21  22  23  24 0
 3-21G
 ****
 26  27  29  30  31  37  38  41  42  43  44  45  46  47 0
 3-21G
 ****
 48 0
 3-21G
 ****


