%nproc=1
%NoSave
%Mem=1900MB
#P OB98/GEN NMR

erre ene a

0 1
  C     -574.671    -169.348      -3.765
  O     -574.486    -168.581      -2.597
  H     -574.675    -168.671      -4.624
  H     -575.628    -169.873      -3.737
  H     -573.853    -170.063      -3.886
  P     -574.631    -169.296      -1.166
  C     -576.986    -168.512      -0.516
  O     -576.208    -169.597      -1.008
  C     -578.475    -168.720      -0.793
  O     -578.966    -169.838      -0.007
  C     -579.345    -167.503      -0.460
  O     -580.251    -167.252      -1.536
  C     -580.109    -167.935       0.783
  O     -581.326    -167.214       0.941
  C     -580.240    -169.444       0.533
  N     -580.568    -170.191       1.742
  C     -581.877    -170.669       1.844
  O     -582.699    -170.420       0.961
  N     -582.240    -171.383       2.961
  C     -581.380    -171.558       3.918
  N     -581.805    -172.267       4.998
  C     -580.004    -171.036       3.868
  C     -579.663    -170.372       2.761
  O     -574.020    -168.547      -0.029
  O     -574.007    -170.755      -1.380
  H     -581.547    -167.180       1.898
  H     -573.762    -171.139      -0.500
  H     -579.327    -171.201       4.697
  H     -578.670    -169.960       2.639
  H     -581.012    -169.648      -0.221
  H     -579.490    -167.757       1.673
  H     -578.768    -166.597      -0.274
  H     -578.589    -169.013      -1.845
  H     -582.758    -172.611       4.990
  H     -576.635    -167.585      -0.985
  H     -581.228    -172.460       5.805
  H     -576.834    -168.443       0.568
  P     -579.631    -166.504      -2.820
  C     -580.247    -164.223      -1.762
  O     -579.245    -165.009      -2.384
  O     -580.900    -166.313      -3.778
  O     -578.541    -167.276      -3.489
  H     -580.900    -166.991      -4.474
  H     -579.849    -163.257      -1.529
  H     -580.569    -164.703      -0.862
  H     -581.079    -164.115      -2.426

 6  7  8  9  10  11  12  13  14  15  16  26  30  31  32  33  35 0
 6-311+G(2d,p)
 ****
 37  38 0
 6-311+G(2d,p)
 ****
 1  2  3  4  5  17  18  19  20  21  22  23  24  25 0
 3-21G
 ****
 27  28  29  34  36  39  40  41  42  43  44  45  46 0
 3-21G
 ****


