%nproc=1
%NoSave
%Mem=1900MB
#P OB98/GEN NMR

erre ene a

0 1
  C     -623.178    -891.170      76.475
  O     -622.208    -890.330      77.092
  P     -620.700    -890.860      77.167
  C     -620.863    -891.030      79.760
  O     -620.599    -891.720      78.524
  C     -620.406    -891.880      80.941
  O     -621.361    -892.940      81.190
  C     -619.082    -892.570      80.753
  O     -617.977    -891.690      81.046
  C     -619.163    -893.660      81.808
  O     -618.885    -893.110      83.106
  C     -620.628    -894.090      81.721
  N     -622.921    -898.640      81.363
  C     -622.849    -897.750      82.395
  N     -622.201    -896.560      82.396
  C     -621.570    -896.340      81.233
  C     -621.528    -897.170      80.127
  C     -622.267    -898.370      80.212
  N     -622.375    -899.270      79.163
  N     -620.800    -896.620      79.110
  C     -620.382    -895.440      79.602
  N     -620.842    -895.240      80.872
  O     -619.855    -889.530      77.492
  O     -620.203    -891.550      75.929
  H     -617.956    -892.780      83.080
  H     -618.943    -889.640      77.196
  H     -623.363    -898.020      83.296
  H     -619.760    -894.740      79.063
  H     -621.048    -894.310      82.716
  H     -618.436    -894.490      81.643
  H     -618.981    -893.020      79.763
  H     -620.406    -891.240      81.854
  H     -621.942    -890.850      79.846
  H     -623.062    -900.000      79.256
  H     -622.060    -898.970      78.243
  H     -620.337    -890.080      79.758
  P     -616.544    -892.160      80.518
  C     -615.764    -892.610      82.952
  O     -615.961    -893.130      81.649
  O     -615.665    -890.830      80.671
  O     -616.516    -892.690      79.118
  H     -614.902    -890.830      80.036
  H     -615.687    -893.450      83.661
  H     -616.603    -891.970      83.263
  H     -614.836    -892.030      82.996
  H     -624.133    -890.688      76.498
  H     -623.234    -892.098      77.004
  H     -622.896    -891.355      75.460

 3  4  5  6  7  8  9  10  11  12  22  25  29  30  31  32 0
 6-311+G(2d,p)
 ****
 33  36  37 0
 6-311+G(2d,p)
 ****
 1  2  13  14  15  16  17  18  19  20  21  23  24  26 0
 3-21G
 ****
 27  28  34  35  38  39  40  41  42  43  44  45  46  47  48 0
 3-21G
 ****


