%nproc=1
%NoSave
%Mem=1900MB
#P OB98/GEN NMR

erre ene a

0 1
  C      315.795    -230.269     137.277
  O      315.532    -231.659     137.352
  P      316.353    -232.515     138.429
  C      318.313    -233.235     136.865
  O      317.895    -232.477     137.992
  C      319.761    -232.882     136.512
  O      319.867    -231.480     136.175
  C      320.736    -233.099     137.661
  O      321.079    -234.469     137.800
  C      321.906    -232.219     137.241
  O      322.759    -232.907     136.310
  C      321.187    -231.042     136.555
  N      321.144    -229.848     137.396
  C      322.190    -228.941     137.227
  O      323.116    -229.135     136.439
  N      322.151    -227.831     138.023
  C      321.226    -227.567     138.990
  O      321.281    -226.577     139.710
  C      320.159    -228.570     139.144
  C      320.170    -229.648     138.355
  O      315.910    -234.025     138.132
  O      316.102    -232.133     139.849
  H      323.037    -233.739     136.742
  H      315.868    -234.529     138.969
  H      322.887    -227.154     137.899
  H      319.405    -228.390     139.900
  H      319.402    -230.406     138.462
  H      321.699    -230.783     135.620
  H      322.532    -231.929     138.093
  H      320.313    -232.709     138.595
  H      320.058    -233.469     135.637
  H      317.660    -233.012     136.018
  H      318.225    -234.301     137.100
  P      321.483    -234.976     139.268
  C      323.985    -234.977     138.504
  O      323.025    -234.552     139.444
  O      321.508    -236.560     139.045
  O      320.541    -234.508     140.327
  H      321.787    -236.799     138.141
  H      323.568    -235.012     137.491
  H      324.345    -235.973     138.778
  H      324.825    -234.279     138.520
  H      315.179    -229.830     136.520
  H      316.825    -230.114     137.033
  H      315.579    -229.814     138.221

 3  4  5  6  7  8  9  10  11  12  13  23  28  29  30  31  32 0
 6-311+G(2d,p)
 ****
 33  34 0
 6-311+G(2d,p)
 ****
 1  2  14  15  16  17  18  19  20  21  22  24  25  26 0
 3-21G
 ****
 27  35  36  37  38  39  40  41  42  43  44  45 0
 3-21G
 ****


