%nproc=1
%NoSave
%Mem=1900MB
#P OB98/GEN NMR

erre ene a

0 1
  C      166.998      95.941    -239.968
  O      165.731      95.287    -239.989
  P      165.349      94.398    -241.265
  C      163.839      92.227    -241.368
  O      164.018      93.567    -240.968
  C      162.689      91.605    -240.560
  O      163.144      91.241    -239.238
  C      161.501      92.548    -240.378
  O      160.598      92.480    -241.467
  C      160.913      92.061    -239.070
  O      160.147      90.862    -239.282
  C      162.193      91.747    -238.261
  N      162.831      92.850    -237.510
  C      162.505      93.055    -236.170
  O      161.702      92.375    -235.542
  N      163.155      94.089    -235.546
  C      164.195      94.812    -236.051
  O      164.779      95.684    -235.424
  C      164.600      94.455    -237.415
  C      163.907      93.522    -238.073
  O      166.494      93.287    -241.310
  O      165.262      95.166    -242.549
  H      160.739      90.209    -239.696
  H      167.032      93.383    -242.118
  H      162.880      94.298    -234.598
  H      165.451      94.971    -237.840
  H      164.201      93.252    -239.084
  H      162.006      90.943    -237.540
  H      160.224      92.792    -238.650
  H      161.853      93.574    -240.227
  H      162.362      90.691    -241.070
  H      164.755      91.650    -241.219
  H      163.613      92.189    -242.440
  P      160.447      93.728    -242.458
  C      160.368      93.857    -245.018
  O      160.013      93.107    -243.873
  O      161.598      94.677    -242.496
  O      159.098      94.440    -241.963
  H      159.301      95.184    -241.349
  H      160.160      93.256    -245.908
  H      161.433      94.104    -244.999
  H      159.773      94.772    -245.063
  H      167.101      96.490    -239.056
  H      167.067      96.613    -240.798
  H      167.777      95.211    -240.035

 3  4  5  6  7  8  9  10  11  12  13  23  28  29  30  31  32 0
 6-311+G(2d,p)
 ****
 33  34 0
 6-311+G(2d,p)
 ****
 1  2  14  15  16  17  18  19  20  21  22  24  25  26  27 0
 3-21G
 ****
 35  36  37  38  39  40  41  42  43  44  45 0
 3-21G
 ****


