%nproc=1
%NoSave
%Mem=1900MB
#P OB98/GEN NMR

erre ene a

0 1
  C        7.138     811.725     -57.702
  O        6.128     812.010     -58.676
  P        6.293     813.393     -59.475
  C        4.949     812.852     -61.632
  O        6.223     813.076     -61.047
  C        4.922     813.351     -63.081
  O        5.004     814.799     -63.161
  C        6.068     812.806     -63.921
  O        5.785     811.493     -64.346
  C        6.097     813.818     -65.080
  O        5.134     813.473     -66.096
  C        5.706     815.133     -64.377
  N        9.782     817.520     -66.228
  C        8.969     816.570     -66.818
  N        9.261     816.241     -68.104
  N        7.951     816.013     -66.211
  C        7.783     816.441     -64.952
  C        8.496     817.408     -64.264
  C        9.622     818.013     -64.935
  O       10.356     818.878     -64.465
  N        7.972     817.626     -63.014
  C        7.019     816.707     -62.898
  N        6.818     816.028     -64.065
  O        7.830     813.788     -59.217
  O        5.355     814.467     -59.001
  H        4.997     814.246     -66.686
  H        7.860     814.574     -58.627
  H       10.561     817.924     -66.735
  H        6.428     816.537     -62.005
  H        5.014     815.718     -65.002
  H        7.078     813.833     -65.568
  H       10.030     816.639     -68.620
  H        7.007     812.859     -63.356
  H        8.672     815.551     -68.547
  H        3.957     813.041     -63.515
  H        4.186     813.357     -61.053
  H        4.722     811.777     -61.582
  P        6.826     810.334     -63.961
  C        4.755     809.018     -63.097
  O        6.101     809.382     -62.894
  O        7.936     811.112     -63.101
  O        7.434     809.626     -65.124
  H        8.816     810.822     -63.374
  H        4.577     808.046     -62.654
  H        4.498     808.983     -64.158
  H        4.104     809.759     -62.597
  H        6.928     810.785     -57.235
  H        7.147     812.497     -56.961
  H        8.093     811.679     -58.182

 3  4  5  6  7  8  9  10  11  12  23  26  30  31 0
 6-311+G(2d,p)
 ****
 33  35  36  37  38 0
 6-311+G(2d,p)
 ****
 1  2  13  14  15  16  17  18  19  20  21  22  24  25 0
 3-21G
 ****
 27  28  29  32  34  39  40  41  42  43  44  45  46  47  48  49 0
 3-21G
 ****


