%nproc=1
%NoSave
%Mem=1900MB
#P OB98/GEN NMR

erre ene a

0 1
  C     -321.186     707.244    -774.500
  O     -321.472     707.022    -773.134
  H     -321.257     706.291    -775.036
  H     -320.167     707.620    -774.628
  H     -321.904     707.946    -774.930
  P     -321.280     708.239    -772.103
  C     -322.772     707.319    -770.199
  O     -321.451     707.601    -770.648
  C     -322.749     706.235    -769.129
  O     -322.419     704.950    -769.723
  C     -321.685     706.464    -768.051
  O     -322.113     707.475    -767.151
  C     -321.559     705.070    -767.462
  O     -322.614     704.782    -766.551
  C     -321.662     704.192    -768.740
  N     -320.358     703.786    -769.260
  C     -319.853     702.582    -768.788
  O     -320.504     701.914    -767.963
  N     -318.617     702.175    -769.221
  C     -317.964     702.884    -770.085
  N     -316.752     702.413    -770.474
  C     -318.458     704.169    -770.624
  C     -319.661     704.557    -770.176
  O     -322.109     709.467    -772.352
  O     -319.708     708.551    -772.191
  H     -322.454     705.346    -765.768
  H     -319.525     709.211    -772.884
  H     -317.888     704.738    -771.333
  H     -320.109     705.490    -770.530
  H     -322.257     703.285    -768.528
  H     -320.609     704.950    -766.937
  H     -320.736     706.739    -768.513
  H     -323.752     706.152    -768.681
  H     -316.434     701.545    -770.070
  H     -323.338     706.992    -771.070
  H     -316.179     702.840    -771.208
  H     -323.246     708.230    -769.798
  P     -321.057     708.538    -766.564
  C     -322.744     710.470    -766.221
  O     -321.922     709.488    -765.582
  O     -320.240     709.255    -767.588
  O     -320.185     707.666    -765.535
  H     -319.564     707.085    -766.024
  H     -323.266     711.036    -765.478
  H     -323.450     709.983    -766.860
  H     -322.130     711.125    -766.802

 6  7  8  9  10  11  12  13  14  15  16  26  30  31  32  33  35 0
 6-311+G(2d,p)
 ****
 37  38 0
 6-311+G(2d,p)
 ****
 1  2  3  4  5  17  18  19  20  21  22  23  24  25 0
 3-21G
 ****
 27  28  29  34  36  39  40  41  42  43  44  45  46 0
 3-21G
 ****


