%nproc=1
%NoSave
%Mem=1900MB
#P OB98/GEN NMR

erre ene a

0 1
  C      182.151     153.550     -71.486
  O      183.440     153.014     -71.247
  P      183.836     151.628     -71.953
  C      183.283     150.166     -69.839
  O      183.015     150.475     -71.197
  C      184.146     148.903     -69.740
  O      184.615     148.761     -68.372
  C      183.416     147.604     -70.114
  O      184.372     146.749     -70.757
  C      183.019     147.040     -68.763
  O      182.778     145.641     -68.802
  C      184.232     147.446     -67.914
  N      183.962     147.461     -66.477
  C      184.213     146.299     -65.752
  O      184.629     145.253     -66.258
  N      183.937     146.362     -64.410
  C      183.393     147.420     -63.747
  O      183.153     147.416     -62.547
  C      183.104     148.605     -64.570
  C      183.402     148.575     -65.873
  O      185.339     151.440     -71.442
  O      183.670     151.643     -73.435
  H      185.472     151.754     -70.531
  H      182.745     145.316     -67.883
  H      184.150     145.540     -63.860
  H      182.653     149.463     -64.083
  H      183.201     149.436     -66.498
  H      185.077     146.777     -68.123
  H      182.107     147.535     -68.415
  H      182.563     147.777     -70.781
  H      185.031     149.042     -70.376
  H      182.341     149.997     -69.316
  H      183.784     151.022     -69.367
  P      183.836     145.707     -71.859
  C      183.913     143.692     -70.185
  O      183.159     144.486     -71.074
  O      185.233     145.080     -72.357
  O      183.047     146.312     -72.975
  H      185.809     144.813     -71.619
  H      183.226     143.158     -69.520
  H      184.583     144.303     -69.576
  H      184.493     142.958     -70.751
  H      182.042     154.469     -70.949
  H      181.408     152.854     -71.156
  H      182.029     153.732     -72.533

 3  4  5  6  7  8  9  10  11  12  13  24  28  29  30  31  32 0
 6-311+G(2d,p)
 ****
 33  34 0
 6-311+G(2d,p)
 ****
 1  2  14  15  16  17  18  19  20  21  22  23  25  26  27 0
 3-21G
 ****
 35  36  37  38  39  40  41  42  43  44  45 0
 3-21G
 ****


