%nproc=1
%NoSave
%Mem=1900MB
#P OB98/GEN NMR

erre ene a

0 1
  C     -575.807    -217.026    -543.390
  O     -574.542    -216.434    -543.521
  P     -573.284    -217.428    -543.706
  C     -572.538    -217.807    -541.254
  O     -572.284    -217.139    -542.495
  C     -571.293    -217.762    -540.379
  O     -570.281    -218.659    -540.919
  C     -570.635    -216.382    -540.294
  O     -571.339    -215.546    -539.403
  C     -569.227    -216.782    -539.814
  O     -569.177    -216.862    -538.387
  C     -569.001    -218.144    -540.464
  N     -568.035    -218.119    -541.541
  C     -566.719    -217.737    -541.202
  O     -566.463    -217.442    -540.037
  N     -565.779    -217.667    -542.195
  C     -566.089    -217.961    -543.413
  N     -565.127    -217.875    -544.353
  C     -567.470    -218.339    -543.829
  C     -568.375    -218.399    -542.835
  O     -572.520    -216.812    -544.990
  O     -573.669    -218.865    -543.927
  H     -569.796    -217.578    -538.123
  H     -572.013    -217.496    -545.468
  H     -567.692    -218.553    -544.863
  H     -569.415    -218.670    -543.053
  H     -568.645    -218.885    -539.716
  H     -568.478    -216.022    -540.097
  H     -570.552    -215.939    -541.296
  H     -571.560    -218.120    -539.377
  H     -564.196    -217.589    -544.044
  H     -572.786    -218.857    -541.449
  H     -565.271    -218.092    -545.328
  H     -573.371    -217.319    -540.761
  P     -571.870    -214.158    -539.980
  C     -569.583    -213.019    -539.542
  O     -570.977    -213.043    -539.227
  O     -573.294    -213.997    -539.246
  O     -571.982    -214.010    -541.487
  H     -573.765    -213.226    -539.589
  H     -569.155    -212.112    -539.093
  H     -569.463    -212.948    -540.632
  H     -569.111    -213.912    -539.146
  H     -576.548    -216.263    -543.275
  H     -575.815    -217.663    -542.531
  H     -576.023    -217.604    -544.265

 3  4  5  6  7  8  9  10  11  12  13  21  23  27  28  29  30  32 0
 6-311+G(2d,p)
 ****
 34  35 0
 6-311+G(2d,p)
 ****
 1  2  14  15  16  17  18  19  20  22  24  25  26 0
 3-21G
 ****
 31  33  36  37  38  39  40  41  42  43  44  45  46 0
 3-21G
 ****


