%nproc=1
%NoSave
%Mem=1900MB
#P OB98/GEN NMR

erre ene a

0 1
  C      189.832     -85.496    -581.235
  O      189.027     -86.041    -580.206
  H      190.599     -86.225    -581.502
  H      190.316     -84.582    -580.884
  H      189.223     -85.280    -582.116
  P      187.813     -85.129    -579.679
  C      187.635     -86.600    -577.543
  O      187.783     -85.293    -578.086
  C      188.183     -86.632    -576.119
  O      189.621     -86.466    -576.146
  C      187.664     -85.510    -575.234
  O      186.354     -85.762    -574.753
  C      188.715     -85.483    -574.138
  O      188.455     -86.471    -573.138
  C      190.001     -85.826    -574.903
  N      192.748     -82.090    -572.767
  C      192.138     -83.178    -572.242
  N      191.435     -84.133    -572.885
  C      191.420     -83.904    -574.207
  C      191.995     -82.841    -574.883
  C      192.695     -81.900    -574.108
  N      193.297     -80.788    -574.635
  N      191.732     -82.928    -576.236
  C      191.015     -84.021    -576.375
  N      190.802     -84.648    -575.177
  O      186.519     -85.930    -580.171
  O      187.823     -83.720    -580.174
  H      187.651     -86.178    -572.661
  H      186.171     -85.517    -580.985
  H      192.213     -83.285    -571.162
  H      190.618     -84.400    -577.312
  H      190.636     -86.531    -574.354
  H      188.745     -84.508    -573.648
  H      187.693     -84.555    -575.778
  H      187.958     -87.613    -575.676
  H      188.192     -87.317    -578.158
  H      186.574     -86.874    -577.557
  H      193.717     -80.119    -574.010
  H      193.162     -80.577    -575.616
  P      185.518     -84.526    -574.168
  C      184.121     -86.179    -572.717
  O      184.896     -84.989    -572.765
  O      184.247     -84.426    -575.138
  O      186.279     -83.241    -574.108
  H      183.998     -83.489    -575.259
  H      183.783     -86.344    -571.715
  H      184.720     -87.008    -573.033
  H      183.277     -86.081    -573.367

 6  7  8  9  10  11  12  13  14  15  25  28  32  33  34  35 0
 6-311+G(2d,p)
 ****
 36  37  40 0
 6-311+G(2d,p)
 ****
 1  2  3  4  5  16  17  18  19  20  21  22  23  24 0
 3-21G
 ****
 26  27  29  30  31  38  39 41  42  43  44  45  46  47  48 0
 3-21G
 ****


