%nproc=1
%NoSave
%Mem=1900MB
#P OB98/GEN NMR

erre ene a

0 1
  C      225.063    -120.069     229.660
  O      225.696    -121.331     229.594
  H      224.268    -120.007     228.911
  H      224.622    -119.948     230.652
  H      225.792    -119.272     229.497
  P      226.377    -121.725     228.196
  C      226.105    -124.265     227.741
  O      226.894    -123.243     228.338
  C      226.757    -125.627     227.973
  O      227.820    -125.797     227.001
  C      227.357    -125.820     229.377
  O      226.766    -126.957     230.012
  C      228.827    -126.122     229.120
  O      229.346    -127.144     229.972
  C      228.852    -126.543     227.655
  N      233.361    -128.606     226.470
  C      232.151    -129.167     226.702
  N      230.968    -128.561     226.907
  C      231.104    -127.222     226.831
  C      232.261    -126.509     226.577
  C      233.439    -127.257     226.412
  N      234.677    -126.683     226.234
  N      232.009    -125.146     226.585
  C      230.726    -125.046     226.877
  N      230.144    -126.272     227.056
  O      227.732    -120.869     228.194
  O      225.549    -121.451     226.986
  H      230.105    -127.539     229.503
  H      227.829    -120.415     227.336
  H      232.138    -130.257     226.734
  H      230.183    -124.116     227.022
  H      228.633    -127.614     227.531
  H      229.409    -125.207     229.283
  H      227.242    -124.937     230.009
  H      226.009    -126.407     227.769
  H      226.031    -124.085     226.662
  H      235.480    -127.287     226.238
  H      234.756    -125.677     226.297
  H      225.098    -124.236     228.168
  P      225.410    -126.696     230.839
  C      225.860    -128.582     232.577
  O      225.008    -128.075     231.557
  O      224.310    -126.548     229.682
  O      225.459    -125.492     231.721
  H      223.570    -125.992     229.993
  H      225.459    -129.500     232.954
  H      225.928    -127.869     233.372
  H      226.835    -128.758     232.172

 6  7  8  9  10  11  12  13  14  15  25  28  32  33  34  35 0
 6-311+G(2d,p)
 ****
 36  39  40 0
 6-311+G(2d,p)
 ****
 1  2  3  4  5  16  17  18  19  20  21  22  23  24 0
 3-21G
 ****
 26  27  29  30  31  37  38  41  42  43  44  45  46  47  48 0
 3-21G
 ****


