%nproc=1
%NoSave
%Mem=1900MB
#P OB98/GEN NMR

erre ene a

0 1
  C       -5.472      49.552    -459.630
  O       -4.101      49.653    -459.956
  H       -5.837      50.518    -459.275
  H       -6.029      49.277    -460.531
  H       -5.638      48.786    -458.869
  P       -3.063      49.748    -458.736
  C       -2.675      48.085    -456.780
  O       -2.884      48.252    -458.176
  C       -3.069      46.674    -456.349
  O       -4.477      46.467    -456.667
  C       -2.265      45.556    -457.027
  O       -2.017      44.523    -456.064
  C       -3.226      45.028    -458.078
  O       -2.960      43.673    -458.436
  C       -4.568      45.225    -457.384
  N       -7.291      42.323    -460.551
  C       -6.476      42.013    -459.520
  N       -5.829      42.855    -458.686
  C       -6.147      44.132    -458.962
  C       -6.962      44.603    -459.976
  C       -7.542      43.628    -460.813
  N       -8.318      43.936    -461.906
  N       -6.993      45.985    -459.971
  C       -6.187      46.341    -458.988
  N       -5.647      45.256    -458.354
  O       -3.933      50.474    -457.601
  O       -1.798      50.481    -459.023
  H       -2.163      43.648    -459.003
  H       -3.855      51.440    -457.699
  H       -6.314      40.952    -459.347
  H       -5.934      47.356    -458.722
  H       -4.794      44.427    -456.664
  H       -3.154      45.643    -458.982
  H       -1.317      45.891    -457.461
  H       -2.976      46.608    -455.255
  H       -3.292      48.808    -456.238
  H       -8.598      43.175    -462.507
  H       -8.420      44.902    -462.176
  H       -1.623      48.277    -456.548
  P       -0.531      43.923    -455.992
  C        1.388      45.391    -455.024
  O        0.235      44.602    -454.758
  O        0.188      44.566    -457.271
  O       -0.479      42.431    -456.026
  H        0.848      43.951    -457.635
  H        1.781      45.771    -454.104
  H        1.122      46.208    -455.662
  H        2.129      44.788    -455.506

 6  7  8  9  10  11  12  13  14  15  25  28  32  33  34  35 0
 6-311+G(2d,p)
 ****
 36  39  40 0
 6-311+G(2d,p)
 ****
 1  2  3  4  5  16  17  18  19  20  21  22  23  24 0
 3-21G
 ****
 26  27  29  30  31  37  38  41  42  43  44  45  46  47 0
 3-21G
 ****
 48 0
 3-21G
 ****


