%nproc=1
%NoSave
%Mem=1900MB
#P OB98/GEN NMR

erre ene a

0 1
  C      425.696     -53.431     -38.298
  O      425.505     -53.059     -39.648
  H      424.990     -52.900     -37.651
  H      425.523     -54.505     -38.202
  H      426.723     -53.208     -37.988
  P      425.610     -51.492     -39.976
  C      425.107     -51.765     -42.506
  O      424.677     -51.234     -41.258
  C      424.027     -51.564     -43.561
  O      422.926     -52.472     -43.328
  C      423.404     -50.172     -43.582
  O      424.231     -49.228     -44.246
  C      422.127     -50.448     -44.365
  O      422.422     -50.478     -45.778
  C      421.735     -51.851     -43.883
  N      416.671     -51.841     -43.008
  C      417.388     -51.846     -44.156
  N      418.731     -51.838     -44.313
  C      419.350     -51.840     -43.121
  C      418.755     -51.841     -41.869
  C      417.348     -51.833     -41.839
  N      416.624     -51.816     -40.662
  N      419.704     -51.860     -40.872
  C      420.859     -51.872     -41.511
  N      420.696     -51.856     -42.870
  O      427.093     -51.329     -40.560
  O      425.373     -50.579     -38.819
  H      421.617     -50.795     -46.227
  H      427.454     -50.469     -40.275
  H      416.808     -51.860     -45.076
  H      421.830     -51.899     -41.031
  H      421.404     -52.485     -44.713
  H      421.354     -49.690     -44.211
  H      423.144     -49.838     -42.572
  H      424.461     -51.810     -44.540
  H      425.311     -52.833     -42.397
  H      415.638     -52.010     -40.696
  H      417.140     -51.817     -39.786
  H      426.028     -51.255     -42.805
  P      424.098     -47.688     -43.805
  C      426.261     -46.974     -45.050
  O      424.848     -46.847     -44.949
  O      425.097     -47.581     -42.556
  O      422.719     -47.245     -43.450
  H      424.825     -46.847     -41.971
  H      426.618     -46.360     -45.851
  H      426.514     -47.995     -45.243
  H      426.714     -46.662     -44.132

 6  7  8  9  10  11  12  13  14  15  25  28  32  33  34  35 0
 6-311+G(2d,p)
 ****
 36  39  40 0
 6-311+G(2d,p)
 ****
 1  2  3  4  5  16  17  18  19  20  21  22  23  24 0
 3-21G
 ****
 26  27  29  30  31  37  38  41  42  43  44  45  46  47  48 0
 3-21G
 ****


