%nproc=1
%NoSave
%Mem=1900MB
#P OB98/GEN NMR

erre ene a

0 1
  C       80.152     138.817    -249.631
  O       79.630     137.707    -250.334
  H       79.679     138.898    -248.650
  H       81.226     138.670    -249.492
  H       79.992     139.737    -250.201
  P       78.060     137.745    -250.667
  C       78.723     137.914    -253.170
  O       77.927     138.427    -252.113
  C       77.867     137.686    -254.410
  O       78.702     137.611    -255.585
  C       77.058     136.393    -254.398
  O       75.876     136.519    -253.621
  C       76.738     136.245    -255.878
  O       75.646     137.115    -256.230
  C       78.036     136.738    -256.535
  N       79.362     133.443    -260.217
  C       78.460     134.447    -260.189
  N       78.179     135.296    -259.178
  C       78.957     135.039    -258.115
  C       79.934     134.065    -258.001
  C       80.127     133.234    -259.116
  N       81.007     132.163    -259.110
  N       80.515     134.097    -256.747
  C       79.883     135.061    -256.112
  N       78.939     135.664    -256.898
  O       77.511     138.867    -249.661
  O       77.344     136.448    -250.494
  H       75.976     138.029    -256.140
  H       77.143     138.433    -248.869
  H       77.884     134.586    -261.097
  H       80.072     135.353    -255.087
  H       77.845     137.331    -257.437
  H       76.445     135.229    -256.154
  H       77.666     135.541    -254.076
  H       77.208     138.556    -254.529
  H       79.171     136.963    -252.860
  H       80.729     131.406    -259.727
  H       81.341     131.903    -258.191
  H       79.522     138.630    -253.385
  P       74.848     135.288    -253.624
  C       76.014     134.121    -251.633
  O       75.634     134.035    -252.999
  O       74.729     134.926    -255.179
  O       73.511     135.573    -253.033
  H       73.793     134.959    -255.455
  H       76.526     133.226    -251.348
  H       75.141     134.241    -251.027
  H       76.662     134.961    -251.495

 6  7  8  9  10  11  12  13  14  15  25  28  32  33  34  35 0
 6-311+G(2d,p)
 ****
 36  39  40 0
 6-311+G(2d,p)
 ****
 1  2  3  4  5  16  17  18  19  20  21  22  23  24 0
 3-21G
 ****
 26  27  29  30  31  37  38  41  42  43  44  45  46  47  48 0
 3-21G
 ****


