%nproc=1
%NoSave
%Mem=1900MB
#P OB98/GEN NMR

erre ene a

0 1
  C     -187.545     416.323    -424.352
  O     -186.843     416.841    -425.464
  H     -188.605     416.262    -424.610
  H     -187.433     416.992    -423.494
  H     -187.187     415.323    -424.098
  P     -185.243     416.906    -425.412
  C     -184.174     416.353    -427.697
  O     -184.737     417.361    -426.866
  C     -185.276     415.570    -428.418
  O     -186.080     416.507    -429.186
  C     -184.740     414.508    -429.386
  O     -185.598     413.367    -429.347
  C     -184.847     415.183    -430.740
  O     -184.970     414.242    -431.806
  C     -186.083     416.065    -430.559
  N     -186.134     417.461    -435.414
  C     -186.262     416.212    -434.847
  N     -186.402     415.171    -435.697
  N     -186.248     415.994    -433.556
  C     -186.119     417.129    -432.826
  C     -185.986     418.427    -433.270
  C     -185.987     418.647    -434.698
  O     -185.862     419.730    -435.259
  N     -185.864     419.301    -432.215
  C     -185.919     418.535    -431.143
  N     -186.059     417.208    -431.457
  O     -184.580     415.676    -424.877
  O     -184.928     418.182    -424.501
  H     -184.916     414.754    -432.643
  H     -184.629     417.915    -423.614
  H     -186.144     417.570    -436.413
  H     -185.855     418.885    -430.119
  H     -187.014     415.525    -430.750
  H     -183.952     415.792    -430.925
  H     -186.446     415.265    -436.700
  H     -183.717     414.211    -429.153
  H     -186.525     414.245    -435.305
  H     -185.935     415.119    -427.663
  H     -183.596     415.672    -427.064
  H     -183.501     416.817    -428.424
  P     -185.032     411.994    -428.735
  C     -187.267     410.914    -428.056
  O     -186.146     410.849    -428.925
  O     -184.464     412.091    -427.357
  O     -183.907     411.569    -429.793
  H     -183.174     411.128    -429.318
  H     -187.935     410.107    -428.275
  H     -187.774     411.845    -428.197
  H     -186.936     410.838    -427.041

 6  7  8  9  10  11  12  13  14  15  26  29  33  34 0
 6-311+G(2d,p)
 ****
 36  38  39  40  41 0
 6-311+G(2d,p)
 ****
 1  2  3  4  5  16  17  18  19  20  21  22  23  24  25 0
 3-21G
 ****
 27  28  30  31  32  35  37  42  43  44  45  46  47 0
 3-21G
 ****
 48  49 0
 3-21G
 ****


