%nproc=1
%NoSave
%Mem=1900MB
#P OB98/GEN NMR

erre ene a

0 1
  C     -893.080     370.192    -271.960
  O     -893.130     368.783    -271.999
  H     -892.250     370.500    -271.310
  H     -894.000     370.612    -271.555
  H     -892.900     370.595    -272.960
  P     -894.360     368.094    -272.767
  C     -895.790     368.382    -270.620
  O     -895.300     367.491    -271.616
  C     -896.730     367.634    -269.680
  O     -897.980     367.361    -270.336
  C     -896.200     366.288    -269.235
  O     -895.190     366.434    -268.256
  C     -897.470     365.595    -268.769
  O     -897.840     366.029    -267.453
  C     -898.480     366.093    -269.816
  N     -898.710     365.130    -270.894
  C     -899.470     364.014    -270.545
  O     -899.920     363.876    -269.408
  N     -899.680     363.051    -271.529
  C     -899.210     363.208    -272.719
  N     -899.460     362.231    -273.624
  C     -898.410     364.385    -273.119
  C     -898.200     365.312    -272.161
  O     -894.020     367.142    -273.871
  O     -895.220     369.349    -273.300
  H     -898.530     365.400    -267.143
  H     -894.910     369.612    -274.192
  H     -898.040     364.487    -274.122
  H     -897.630     366.192    -272.369
  H     -899.450     366.323    -269.335
  H     -897.360     364.519    -268.738
  H     -895.800     365.720    -270.095
  H     -896.940     368.270    -268.813
  H     -900.000     361.427    -273.320
  H     -896.320     369.187    -271.134
  H     -899.210     362.290    -274.602
  H     -894.960     368.814    -270.062
  P     -893.760     365.708    -268.413
  C     -894.520     363.571    -267.187
  O     -893.660     364.689    -267.178
  O     -892.600     366.623    -268.596
  O     -894.010     364.727    -269.655
  H     -894.030     365.229    -270.510
  H     -894.347     362.981    -266.311
  H     -894.328     362.980    -268.058
  H     -895.537     363.903    -267.199

 6  7  8  9  10  11  12  13  14  15  16  26  30  31  32  33  35 0
 6-311+G(2d,p)
 ****
 37  38 0
 6-311+G(2d,p)
 ****
 1  2  3  4  5  17  18  19  20  21  22  23  24  25 0
 3-21G
 ****
 27  28  29  34  36  39  40  41  42  43  44  45  46 0
 3-21G
 ****


