%nproc=1
%NoSave
%Mem=1900MB
#P OB98/GEN NMR

erre ene a

0 1
  C     -453.938     -45.804     -30.055
  O     -453.386     -47.097     -30.250
  P     -451.908     -47.210     -30.866
  C     -451.779     -49.689     -30.109
  O     -451.649     -48.768     -31.181
  C     -451.087     -51.015     -30.424
  O     -451.892     -51.747     -31.394
  C     -449.676     -50.871     -31.034
  O     -448.905     -51.998     -30.570
  C     -449.923     -51.007     -32.524
  O     -448.748     -51.382     -33.229
  C     -451.030     -52.062     -32.522
  N     -451.210     -53.724     -37.366
  C     -450.318     -53.936     -36.372
  N     -450.335     -53.461     -35.102
  C     -451.423     -52.694     -34.905
  C     -452.405     -52.357     -35.825
  C     -452.278     -52.927     -37.114
  N     -453.196     -52.725     -38.123
  N     -453.342     -51.523     -35.256
  C     -452.940     -51.362     -34.010
  N     -451.800     -52.058     -33.746
  O     -450.974     -46.926     -29.596
  O     -451.609     -46.271     -31.986
  H     -448.984     -51.567     -34.158
  H     -450.519     -46.067     -29.698
  H     -449.467     -54.573     -36.624
  H     -453.438     -50.733     -33.274
  H     -450.639     -53.087     -32.372
  H     -450.283     -50.058     -32.923
  H     -449.174     -49.932     -30.768
  H     -451.051     -51.620     -29.507
  H     -452.840     -49.882     -29.940
  H     -453.106     -53.266     -38.963
  H     -454.082     -52.281     -37.884
  H     -451.357     -49.247     -29.193
  P     -447.646     -51.671     -29.625
  C     -448.280     -53.468     -27.863
  O     -447.321     -53.009     -28.815
  O     -448.265     -50.679     -28.516
  O     -446.485     -51.049     -30.341
  H     -447.560     -50.096     -28.177
  H     -448.257     -54.561     -27.843
  H     -449.294     -53.138     -28.108
  H     -448.009     -53.085     -26.868
  H     -454.920     -45.894     -29.641
  H     -453.992     -45.294     -30.994
  H     -453.317     -45.249     -29.383

 3  4  5  6  7  8  9  10  11  12  22  25  29  30  31  32 0
 6-311+G(2d,p)
 ****
 33  36  37 0
 6-311+G(2d,p)
 ****
 1  2  13  14  15  16  17  18  19  20  21  23  24  26 0
 3-21G
 ****
 27  28  34  35  38  39  40  41  42  43  44  45  46  47  48 0
 3-21G
 ****


