%nproc=1
%NoSave
%Mem=1900MB
#P OB98/GEN NMR

erre ene a

0 1
  C     -121.978      68.196      46.180
  O     -121.207      67.189      46.833
  P     -121.109      67.220      48.433
  C     -120.023      68.750      50.207
  O     -119.997      68.297      48.856
  C     -118.708      69.461      50.565
  O     -117.649      68.471      50.662
  C     -118.226      70.485      49.531
  O     -118.674      71.830      49.652
  C     -116.723      70.501      49.808
  O     -116.441      71.382      50.912
  C     -116.413      69.063      50.210
  N     -112.076      67.410      48.057
  C     -112.310      68.177      49.144
  N     -113.495      68.572      49.650
  C     -114.512      68.082      48.923
  C     -114.427      67.285      47.794
  C     -113.135      66.946      47.354
  N     -112.898      66.174      46.241
  N     -115.684      66.985      47.313
  C     -116.513      67.607      48.129
  N     -115.853      68.272      49.126
  O     -121.007      65.893      49.106
  O     -122.471      67.961      48.846
  H     -115.494      71.274      51.120
  H     -122.816      67.557      49.665
  H     -111.427      68.521      49.677
  H     -117.590      67.605      48.035
  H     -115.702      69.005      51.044
  H     -116.145      70.873      48.957
  H     -118.410      70.125      48.511
  H     -118.815      69.942      51.545
  H     -120.173      67.897      50.874
  H     -111.940      66.015      45.970
  H     -113.674      65.869      45.672
  H     -120.894      69.396      50.320
  P     -119.700      72.466      48.598
  C     -119.516      73.052      46.054
  O     -118.937      72.446      47.189
  O     -120.262      73.791      48.981
  O     -120.790      71.306      48.431
  H     -120.462      70.507      47.984
  H     -118.761      73.120      45.268
  H     -119.876      74.056      46.289
  H     -120.347      72.435      45.692
  H     -121.946      68.040      45.122
  H     -121.575      69.160      46.411
  H     -122.992      68.144      46.517

 3  4  5  6  7  8  9  10  11  12  22  25  29  30  31  32 0
 6-311+G(2d,p)
 ****
 33  36  37 0
 6-311+G(2d,p)
 ****
 1  2  13  14  15  16  17  18  19  20  21  23  24  26 0
 3-21G
 ****
 27  28  34  35  38  39  40  41  42  43  44  45  46  47  48 0
 3-21G
 ****


