%nproc=1
%NoSave
%Mem=1900MB
#P OB98/GEN NMR

erre ene a

0 1
  C     -899.051    -694.265    1712.144
  O     -898.691    -695.656    1712.191
  P     -898.521    -696.525    1710.813
  C     -896.191    -697.678    1711.236
  O     -896.941    -696.697    1710.526
  C     -895.331    -697.064    1712.299
  O     -896.151    -696.360    1713.308
  C     -894.481    -697.988    1713.148
  O     -893.341    -698.488    1712.399
  C     -894.061    -697.079    1714.325
  O     -892.931    -696.305    1714.020
  C     -895.311    -696.208    1714.510
  N     -896.071    -696.509    1715.720
  C     -895.311    -696.771    1716.857
  O     -894.081    -696.808    1716.847
  N     -896.011    -696.974    1718.044
  C     -897.261    -697.029    1718.065
  N     -897.961    -697.228    1719.280
  C     -898.151    -696.886    1716.816
  C     -897.461    -696.615    1715.735
  O     -899.311    -696.025    1709.664
  O     -899.001    -698.024    1711.275
  H     -899.321    -698.471    1710.466
  H     -892.781    -695.692    1714.781
  H     -899.211    -696.924    1716.858
  H     -897.971    -696.506    1714.749
  H     -895.021    -695.148    1714.540
  H     -893.771    -697.722    1715.205
  H     -895.101    -698.854    1713.488
  H     -894.651    -696.259    1711.830
  H     -897.301    -697.324    1720.109
  H     -895.551    -698.225    1710.541
  H     -898.921    -697.252    1719.368
  H     -896.931    -698.412    1711.718
  P     -893.261    -700.116    1712.272
  C     -892.401    -700.804    1709.880
  O     -893.481    -700.491    1710.672
  O     -894.571    -700.674    1712.994
  O     -892.001    -700.722    1712.854
  H     -894.391    -701.490    1713.539
  H     -892.731    -701.479    1709.098
  H     -891.621    -701.364    1710.441
  H     -891.951    -699.945    1709.477
  H     -899.112    -693.878    1713.140
  H     -900.000    -694.158    1711.662
  H     -898.309    -693.723    1711.596

 3  4  5  6  7  8  9  10  11  12  13  24  27  28  29  30  32 0
 6-311+G(2d,p)
 ****
 34  35 0
 6-311+G(2d,p)
 ****
 1  2  14  15  16  17  18  19  20  21  22  23  25  26 0
 3-21G
 ****
 31  33  36  37  38  39  40  41  42  43  44  45  46 0
 3-21G
 ****


