%nproc=1
%NoSave
%Mem=1900MB
#P OB98/GEN NMR

erre ene a

0 1
  C      -70.202     604.379    -198.252
  O      -70.997     603.269    -197.894
  H      -70.222     604.490    -199.339
  H      -69.166     604.225    -197.938
  H      -70.596     605.297    -197.803
  P      -71.248     602.960    -196.343
  C      -70.022     600.704    -196.574
  O      -71.218     601.369    -196.172
  C      -70.195     599.194    -196.426
  O      -70.533     598.858    -195.061
  C      -71.309     598.610    -197.287
  O      -70.908     598.527    -198.636
  C      -71.535     597.277    -196.588
  O      -70.532     596.319    -196.967
  C      -71.362     597.673    -195.101
  N      -72.639     597.901    -194.423
  C      -73.003     596.950    -193.471
  O      -72.321     595.967    -193.200
  N      -74.223     597.152    -192.873
  C      -75.123     598.125    -193.188
  O      -76.282     598.136    -192.789
  C      -74.653     599.136    -194.148
  C      -73.457     598.974    -194.721
  O      -72.424     603.643    -195.729
  O      -69.876     603.422    -195.644
  H      -70.002     604.295    -195.235
  H      -69.693     596.818    -197.051
  H      -74.526     596.438    -192.215
  H      -75.312     599.970    -194.379
  H      -73.098     599.693    -195.455
  H      -70.824     596.890    -194.553
  H      -72.504     596.837    -196.827
  H      -72.217     599.220    -197.188
  H      -69.234     598.715    -196.660
  H      -69.203     601.039    -195.926
  H      -69.794     600.968    -197.611
  P      -71.972     598.643    -199.824
  C      -71.711     596.462    -201.156
  O      -71.396     597.842    -201.096
  O      -72.438     600.032    -200.130
  O      -73.199     597.724    -199.350
  H      -74.027     598.244    -199.388
  H      -71.279     596.036    -202.037
  H      -72.774     596.340    -201.184
  H      -71.318     595.969    -200.292

 6  7  8  9  10  11  12  13  14  15  16  27  31  32  33  34  35 0
 6-311+G(2d,p)
 ****
 36  37 0
 6-311+G(2d,p)
 ****
 1  2  3  4  5  17  18  19  20  21  22  23  24  25 0
 3-21G
 ****
 26  28  29  30  38  39  40  41  42  43  44  45 0
 3-21G
 ****


