%nproc=1
%NoSave
%Mem=1900MB
#P OB98/GEN NMR

erre ene a

0 1
  C      129.405     209.706    -240.754
  O      129.130     210.413    -241.947
  H      128.530     209.740    -240.098
  H      129.614     208.662    -241.004
  H      130.273     210.128    -240.243
  P      129.089     212.014    -241.860
  C      126.548     212.395    -241.488
  O      127.845     212.386    -240.911
  C      125.653     213.409    -240.775
  O      125.358     212.908    -239.441
  C      126.276     214.806    -240.626
  O      125.248     215.783    -240.818
  C      126.720     214.836    -239.174
  O      126.794     216.157    -238.647
  C      125.648     213.973    -238.517
  N      124.305     213.241    -233.667
  C      123.580     213.521    -234.771
  N      124.013     213.647    -236.042
  C      125.330     213.384    -236.125
  C      126.196     213.081    -235.089
  C      125.636     213.029    -233.802
  N      126.374     212.813    -232.662
  N      127.486     212.935    -235.568
  C      127.399     213.173    -236.862
  N      126.115     213.452    -237.244
  O      128.580     212.425    -243.323
  O      130.380     212.674    -241.512
  H      125.891     216.459    -238.423
  H      129.343     212.511    -243.923
  H      122.515     213.674    -234.615
  H      128.231     213.190    -237.554
  H      124.719     214.526    -238.325
  H      127.709     214.372    -239.084
  H      127.104     214.999    -241.319
  H      124.700     213.466    -241.313
  H      126.105     211.397    -241.388
  H      125.905     212.900    -231.774
  H      127.382     212.761    -232.735
  H      126.629     212.640    -242.553
  P      125.355     216.722    -242.113
  C      125.346     218.976    -240.806
  O      126.046     218.103    -241.687
  O      123.834     217.139    -242.390
  O      125.966     216.047    -243.298
  H      123.682     217.250    -243.345
  H      125.939     219.847    -240.622
  H      125.156     218.472    -239.881
  H      124.418     219.264    -241.253

 6  7  8  9  10  11  12  13  14  15  25  28  32  33  34  35 0
 6-311+G(2d,p)
 ****
 36  39  40 0
 6-311+G(2d,p)
 ****
 1  2  3  4  5  16  17  18  19  20  21  22  23  24 0
 3-21G
 ****
 26  27  29  30  31  37  38  41  42  43  44  45  46  47 0
 3-21G
 ****
 48 0
 3-21G
 ****


