%nproc=1
%NoSave
%Mem=1900MB
#P OB98/GEN NMR

erre ene a

0 1
  C       14.834    -199.925    -171.992
  O       13.622    -199.166    -171.929
  P       12.298    -199.974    -171.501
  C       11.293    -199.660    -173.877
  O       11.627    -200.571    -172.836
  C       10.749    -200.383    -175.113
  O       11.715    -201.370    -175.551
  C        9.422    -201.119    -174.897
  O        8.631    -200.998    -176.086
  C        9.844    -202.572    -174.778
  O        8.781    -203.470    -175.085
  C       11.010    -202.604    -175.763
  N       11.816    -207.486    -176.819
  C       10.856    -206.621    -177.310
  N        9.973    -207.141    -178.193
  N       10.769    -205.362    -176.971
  C       11.739    -204.971    -176.107
  C       12.751    -205.730    -175.555
  C       12.806    -207.133    -175.913
  O       13.601    -207.960    -175.468
  N       13.540    -204.978    -174.720
  C       13.003    -203.776    -174.757
  N       11.904    -203.722    -175.579
  O       11.295    -198.815    -171.043
  O       12.524    -200.963    -170.405
  H        9.147    -204.374    -175.046
  H       10.992    -198.977    -170.131
  H       11.823    -208.451    -177.099
  H       13.349    -202.919    -174.198
  H       10.654    -202.617    -176.802
  H       10.176    -202.774    -173.752
  H       10.021    -208.082    -178.546
  H        8.850    -200.774    -174.032
  H        9.288    -206.512    -178.600
  H       10.648    -199.648    -175.920
  H       12.180    -199.089    -174.157
  H       10.549    -198.953    -173.496
  P        7.384    -199.984    -176.016
  C        5.725    -201.861    -175.316
  O        6.352    -200.638    -174.979
  O        6.674    -200.180    -177.439
  O        7.767    -198.565    -175.759
  H        6.193    -199.366    -177.690
  H        6.176    -202.334    -176.191
  H        4.668    -201.672    -175.524
  H        5.803    -202.541    -174.464
  H       15.640    -199.286    -172.285
  H       14.725    -200.712    -172.708
  H       15.043    -200.344    -171.030

 3  4  5  6  7  8  9  10  11  12  23  26  30  31  33  0
 6-311+G(2d,p)
 ****
 35  36  37  38 0
 6-311+G(2d,p)
 ****
 1  2  13  14  15  16  17  18  19  20  21  22  24  25  27  28  29 0
 3-21G
 ****
 32  34  39  40  41  42  43  44  45  46  47  48  49 0
 3-21G
 ****


