%nproc=1
%NoSave
%Mem=1900MB
#P OB98/GEN NMR

erre ene a

0 1
  C     -113.862    -475.547    -208.971
  O     -112.925    -474.503    -208.804
  H     -114.230    -475.525    -210.001
  H     -114.710    -475.415    -208.295
  H     -113.389    -476.517    -208.791
  P     -112.281    -474.272    -207.356
  C     -113.176    -473.899    -204.963
  O     -113.498    -473.981    -206.350
  C     -114.292    -473.173    -204.206
  O     -114.155    -471.752    -204.467
  C     -115.695    -473.611    -204.660
  O     -116.531    -474.020    -203.581
  C     -116.168    -472.441    -205.515
  O     -117.572    -472.293    -205.586
  C     -115.430    -471.244    -204.904
  N     -115.250    -470.127    -205.827
  C     -116.389    -469.410    -206.188
  O     -117.524    -469.627    -205.775
  N     -116.179    -468.379    -207.071
  C     -114.986    -468.013    -207.617
  O     -114.862    -467.076    -208.394
  C     -113.827    -468.822    -207.213
  C     -114.008    -469.825    -206.351
  O     -111.167    -473.279    -207.294
  O     -111.792    -475.731    -206.912
  H     -117.761    -471.527    -206.163
  H     -110.826    -475.799    -207.029
  H     -116.998    -467.847    -207.331
  H     -112.865    -468.567    -207.632
  H     -113.172    -470.443    -206.030
  H     -115.963    -470.871    -204.028
  H     -115.811    -472.597    -206.539
  H     -115.638    -474.511    -205.288
  H     -114.148    -473.324    -203.130
  H     -112.235    -473.352    -204.868
  H     -113.047    -474.908    -204.554
  P     -116.519    -475.476    -202.924
  C     -116.908    -477.928    -203.775
  O     -116.928    -476.535    -204.056
  O     -117.210    -475.598    -201.607
  O     -114.950    -475.764    -202.682
  H     -114.888    -476.314    -201.877
  H     -117.209    -478.472    -204.646
  H     -117.582    -478.139    -202.971
  H     -115.918    -478.221    -203.496

 6  7  8  9  10  11  12  13  14  15  16  26  31  32  33  34  35 0
 6-311+G(2d,p)
 ****
 36  37 0
 6-311+G(2d,p)
 ****
 1  2  3  4  5  17  18  19  20  21  22  23  24  25 0
 3-21G
 ****
 27  28  29  30  38  39  40  41  42  43  44  45 0
 3-21G
 ****


