%nproc=1
%NoSave
%Mem=1900MB
#P OB98/GEN NMR

erre ene a

0 1
  C      114.746     -18.589      60.937
  O      113.427     -18.899      61.408
  P      112.516     -17.864      62.230
  C      110.700     -17.380      60.448
  O      111.814     -16.873      61.179
  C      109.433     -16.582      60.771
  O      109.619     -15.184      60.435
  C      108.192     -16.990      59.991
  O      107.652     -18.218      60.438
  C      107.285     -15.782      60.222
  O      106.579     -15.890      61.464
  C      108.294     -14.621      60.287
  N      108.228     -13.741      59.131
  C      107.195     -12.798      59.118
  O      106.349     -12.789      60.014
  N      107.140     -11.900      58.082
  C      107.971     -12.003      57.094
  N      107.883     -11.074      56.104
  C      108.989     -13.070      57.004
  C      109.062     -13.892      58.046
  O      113.243     -17.157      63.328
  O      111.303     -18.735      62.809
  H      110.958     -18.315      63.620
  H      106.057     -15.069      61.565
  H      109.637     -13.143      56.142
  H      109.790     -14.696      58.069
  H      108.132     -14.030      61.197
  H      106.533     -15.676      59.432
  H      108.442     -17.058      58.924
  H      109.247     -16.658      61.851
  H      107.181     -10.350      56.202
  H      110.543     -18.424      60.737
  H      108.496     -11.050      55.303
  H      110.925     -17.342      59.379
  P      106.267     -18.687      59.779
  C      107.490     -19.889      57.829
  O      106.528     -18.927      58.215
  O      105.364     -17.364      59.817
  O      105.596     -19.822      60.483
  H      104.442     -17.602      60.034
  H      107.219     -20.277      56.845
  H      107.540     -20.719      58.538
  H      108.470     -19.410      57.763
  H      115.148     -19.435      60.420
  H      115.374     -18.348      61.769
  H      114.700     -17.753      60.271

 3  4  5  6  7  8  9  10  11  12  13  24  27  28  29  30  32 0
 6-311+G(2d,p)
 ****
 34  35 0
 6-311+G(2d,p)
 ****
 1  2  14  15  16  17  18  19  20  21  22  23  25  26 0
 3-21G
 ****
 31  33  36  37  38  39  40  41  42  43  44  45  46 0
 3-21G
 ****


