%nproc=1
%NoSave
%Mem=1900MB
#P OB98/GEN NMR

erre ene a

0 1
  C     -246.053      94.806    -185.312
  O     -247.151      94.459    -186.130
  H     -245.129      94.580    -185.850
  H     -246.073      94.218    -184.391
  H     -246.064      95.873    -185.071
  P     -248.619      94.933    -185.698
  C     -249.909      92.768    -186.245
  O     -249.653      94.114    -186.612
  C     -249.386      91.805    -187.314
  O     -249.910      92.223    -188.613
  C     -247.846      91.775    -187.433
  O     -247.475      90.447    -187.828
  C     -247.621      92.763    -188.561
  O     -246.319      92.681    -189.077
  C     -248.774      92.370    -189.488
  N     -249.035      93.345    -190.540
  C     -248.437      93.127    -191.777
  O     -247.727      92.157    -192.033
  N     -248.674      94.082    -192.729
  C     -249.426      95.208    -192.565
  O     -249.625      96.022    -193.457
  C     -250.009      95.398    -191.225
  C     -249.792      94.470    -190.290
  O     -248.841      96.407    -185.660
  O     -248.820      94.270    -184.253
  H     -248.622      94.929    -183.562
  H     -246.243      93.212    -189.900
  H     -248.248      93.940    -193.631
  H     -250.595      96.291    -191.056
  H     -250.203      94.579    -189.291
  H     -248.590      91.391    -189.944
  H     -247.750      93.789    -188.197
  H     -247.342      92.034    -186.499
  H     -249.786      90.803    -187.119
  H     -250.990      92.642    -186.133
  H     -249.424      92.556    -185.285
  P     -247.086      89.293    -186.782
  C     -244.809      88.774    -187.876
  O     -246.074      88.261    -187.481
  O     -248.271      88.629    -186.155
  O     -246.191      90.012    -185.666
  H     -246.377      89.610    -184.798
  H     -244.232      87.993    -188.326
  H     -244.293      89.150    -187.017
  H     -244.950      89.565    -188.582

 6  7  8  9  10  11  12  13  14  15  16  27  31  32  33  34  35 0
 6-311+G(2d,p)
 ****
 36  37 0
 6-311+G(2d,p)
 ****
 1  2  3  4  5  17  18  19  20  21  22  23  24  25 0
 3-21G
 ****
 26  28  29  30  38  39  40  41  42  43  44  45 0
 3-21G
 ****


