%nproc=1
%NoSave
%Mem=1900MB
#P OB98/GEN NMR

erre ene a

0 1
  C      -73.408     530.315      61.623
  O      -73.504     529.043      62.238
  H      -72.910     530.233      60.655
  H      -74.417     530.707      61.474
  H      -72.854     531.000      62.273
  P      -72.127     528.250      62.446
  C      -72.921     526.118      61.204
  O      -72.013     527.209      61.228
  C      -72.637     525.224      60.004
  O      -72.778     525.975      58.781
  C      -71.230     524.642      59.958
  O      -71.085     523.527      60.828
  C      -71.140     524.231      58.498
  O      -71.811     522.967      58.311
  C      -71.922     525.343      57.788
  N      -70.016     527.196      53.400
  C      -70.841     526.157      53.650
  N      -71.298     525.719      54.840
  C      -70.827     526.482      55.846
  C      -69.981     527.569      55.737
  C      -69.563     527.926      54.443
  N      -68.707     528.978      54.196
  N      -69.727     528.116      56.978
  C      -70.403     527.366      57.823
  N      -71.084     526.362      57.185
  O      -72.425     527.307      63.710
  O      -70.923     529.106      62.674
  H      -72.007     522.893      57.359
  H      -71.613     527.232      64.244
  H      -71.185     525.609      52.780
  H      -70.439     527.518      58.894
  H      -72.584     524.946      57.010
  H      -70.114     524.111      58.148
  H      -70.474     525.416      60.164
  H      -73.387     524.420      59.992
  H      -73.942     526.498      61.136
  H      -68.601     529.302      53.248
  H      -68.375     529.522      54.986
  H      -72.816     525.548      62.135
  P      -69.594     522.992      61.107
  C      -69.994     520.456      60.727
  O      -69.437     521.666      60.221
  O      -69.689     522.421      62.602
  O      -68.519     524.010      60.968
  H      -68.807     522.439      63.021
  H      -69.813     519.662      60.033
  H      -71.048     520.578      60.862
  H      -69.539     520.219      61.666

 6  7  8  9  10  11  12  13  14  15  25  28  32  33  34  35 0
 6-311+G(2d,p)
 ****
 36  39  40 0
 6-311+G(2d,p)
 ****
 1  2  3  4  5  16  17  18  19  20  21  22  23  24 0
 3-21G
 ****
 26  27  29  30  31  37  38  41  42  43  44  45  46  47  48 0
 3-21G
 ****


