%nproc=1
%NoSave
%Mem=1900MB
#P OB98/GEN NMR

erre ene a

0 1
  C      441.330    -215.958      29.790
  O      441.349    -215.508      31.131
  H      440.848    -215.194      29.174
  H      440.751    -216.883      29.721
  H      442.348    -216.122      29.422
  P      442.296    -216.313      32.153
  C      442.109    -218.617      33.336
  O      441.699    -217.803      32.248
  C      441.619    -220.051      33.141
  O      441.907    -220.504      31.802
  C      442.255    -221.067      34.084
  O      441.599    -221.091      35.348
  C      442.005    -222.357      33.317
  O      440.626    -222.762      33.480
  C      442.253    -221.918      31.868
  N      445.275    -224.238      28.513
  C      443.913    -224.366      28.716
  N      443.266    -225.241      27.912
  N      443.242    -223.696      29.622
  C      444.027    -222.874      30.367
  C      445.388    -222.673      30.265
  C      446.110    -223.404      29.247
  O      447.319    -223.319      29.022
  N      445.829    -221.765      31.194
  C      444.745    -221.438      31.871
  N      443.625    -222.087      31.406
  O      441.918    -215.663      33.568
  O      443.757    -216.211      31.877
  H      440.512    -223.585      32.976
  H      442.622    -215.034      33.824
  H      445.744    -224.781      27.807
  H      444.715    -220.734      32.690
  H      441.609    -222.444      31.157
  H      442.622    -223.187      33.673
  H      443.721    -225.801      27.211
  H      443.336    -220.903      34.191
  H      442.262    -225.343      28.040
  H      440.524    -220.046      33.254
  H      441.692    -218.213      34.264
  H      443.205    -218.603      33.402
  P      442.397    -221.686      36.606
  C      442.897    -224.089      37.443
  O      442.610    -223.255      36.332
  O      441.292    -221.652      37.767
  O      443.623    -220.930      36.999
  H      441.536    -220.985      38.443
  H      443.013    -225.099      37.110
  H      442.093    -224.035      38.147
  H      443.802    -223.762      37.910

 6  7  8  9  10  11  12  13  14  15  26  29  33  34 0
 6-311+G(2d,p)
 ****
 36  38  39  40  41 0
 6-311+G(2d,p)
 ****
 1  2  3  4  5  16  17  18  19  20  21  22  23  24  25 0
 3-21G
 ****
 27  28  30  31  32  35  37  42  43  44  45  46  47 0
 3-21G
 ****
 48  49 0
 3-21G
 ****


