%nproc=1
%NoSave
%Mem=1900MB
#P OB98/GEN NMR

erre ene a

0 1
  C      569.636    -127.023      94.276
  O      570.762    -126.382      94.844
  H      569.842    -128.097      94.202
  H      569.436    -126.632      93.271
  H      568.759    -126.873      94.915
  P      570.674    -124.789      95.006
  C      570.990    -124.027      92.562
  O      570.062    -124.278      93.612
  C      570.401    -123.038      91.548
  O      569.269    -123.664      90.893
  C      569.906    -121.734      92.191
  O      570.201    -120.647      91.311
  C      568.403    -121.921      92.267
  O      567.687    -120.692      92.284
  C      568.128    -122.801      91.038
  N      563.213    -122.572      92.395
  C      564.145    -121.614      92.206
  N      565.431    -121.757      91.830
  C      565.714    -123.058      91.594
  C      564.873    -124.147      91.740
  C      563.556    -123.869      92.175
  N      562.606    -124.839      92.392
  N      565.536    -125.325      91.444
  C      566.766    -124.944      91.107
  N      566.917    -123.582      91.195
  O      571.936    -124.113      95.432
  O      569.439    -124.625      96.009
  H      566.760    -120.872      92.548
  H      568.699    -125.213      95.762
  H      563.817    -120.589      92.394
  H      567.563    -125.613      90.810
  H      568.012    -122.201      90.124
  H      568.151    -122.474      93.193
  H      570.344    -121.551      93.169
  H      571.147    -122.842      90.778
  H      571.245    -124.970      92.048
  H      561.692    -124.554      92.681
  H      562.845    -125.805      92.208
  H      571.893    -123.617      93.012
  P      571.400    -119.650      91.708
  C      570.195    -117.582      92.698
  O      570.943    -118.766      92.974
  O      572.002    -118.889      90.576
  O      572.469    -120.651      92.363
  H      573.374    -120.362      92.103
  H      569.955    -117.089      93.617
  H      569.292    -117.842      92.186
  H      570.777    -116.927      92.084

 6  7  8  9  10  11  12  13  14  15  25  28  32  33  34  35 0
 6-311+G(2d,p)
 ****
 36  39  40 0
 6-311+G(2d,p)
 ****
 1  2  3  4  5  16  17  18  19  20  21  22  23  24 0
 3-21G
 ****
 26  27  29  30  31  37  38  41  42  43  44  45  46  47 0
 3-21G
 ****
 48 0
 3-21G
 ****


