%nproc=1
%NoSave
%Mem=1900MB
#P OB98/GEN NMR

erre ene a

0 1
  C        3.169     434.976      67.652
  O        4.221     434.268      66.990
  P        4.083     432.697      66.748
  C        5.438     432.516      64.550
  O        4.165     432.388      65.177
  C        5.530     433.846      63.809
  O        5.527     434.969      64.719
  C        6.824     433.996      63.020
  O        6.983     433.178      61.881
  C        6.903     435.502      62.806
  O        6.113     435.912      61.681
  C        6.292     436.033      64.124
  N        7.304     436.548      65.045
  C        7.327     437.930      65.225
  O        6.582     438.699      64.617
  N        8.268     438.404      66.098
  C        9.188     437.649      66.771
  O       10.029     438.129      67.528
  C        9.133     436.201      66.523
  C        8.209     435.721      65.688
  O        2.963     432.020      67.467
  O        5.495     432.135      67.279
  H        6.030     436.881      61.721
  H        5.324     431.309      67.766
  H        8.293     439.399      66.246
  H        9.853     435.577      67.038
  H        8.147     434.653      65.490
  H        5.586     436.852      63.913
  H        7.927     435.833      62.609
  H        7.660     433.735      63.688
  H        4.655     433.948      63.160
  H        5.591     431.685      63.852
  H        6.215     432.429      65.316
  P        7.271     431.600      61.968
  C        5.793     430.561      60.108
  O        5.959     430.815      61.480
  O        7.956     431.097      63.195
  O        8.253     431.390      60.723
  H        8.883     430.677      60.939
  H        4.844     430.041      59.956
  H        6.599     429.927      59.733
  H        5.765     431.507      59.547
  H        3.428     436.011      67.728
  H        3.028     434.571      68.632
  H        2.263     434.875      67.091

 3  4  5  6  7  8  9  10  11  12  13  23  28  29  30  31  32 0
 6-311+G(2d,p)
 ****
 33  34 0
 6-311+G(2d,p)
 ****
 1  2  14  15  16  17  18  19  20  21  22  24  25  26  27 0
 3-21G
 ****
 35  36  37  38  39  40  41  42  43  44  45 0
 3-21G
 ****


