%nproc=1
%NoSave
%Mem=1900MB
#P OB98/GEN NMR

erre ene a

0 1
  C      173.870    -323.442     439.977
  O      172.706    -322.870     439.396
  H      173.977    -324.467     439.607
  H      173.782    -323.475     441.068
  H      174.755    -322.866     439.693
  P      172.242    -321.423     439.907
  C      170.560    -322.695     441.406
  O      171.544    -321.667     441.326
  C      169.398    -322.244     442.292
  O      169.810    -322.207     443.674
  C      168.912    -320.837     441.966
  O      168.127    -320.832     440.786
  C      168.172    -320.491     443.242
  O      166.861    -321.078     443.265
  C      169.085    -321.129     444.315
  N      169.999    -320.170     444.922
  C      169.413    -319.064     445.546
  O      168.188    -318.939     445.564
  N      170.232    -318.116     446.106
  C      171.524    -318.267     446.069
  N      172.273    -317.286     446.646
  C      172.183    -319.422     445.442
  C      171.373    -320.326     444.889
  O      171.424    -320.604     438.952
  O      173.617    -320.699     440.294
  H      166.354    -320.620     442.562
  H      173.986    -320.225     439.524
  H      173.261    -319.509     445.432
  H      171.777    -321.209     444.405
  H      168.482    -321.583     445.114
  H      168.052    -319.416     443.355
  H      169.763    -320.154     441.872
  H      168.584    -322.976     442.201
  H      171.780    -316.507     447.056
  H      171.048    -323.574     441.846
  H      173.278    -317.342     446.756
  H      170.191    -322.961     440.409
  P      167.920    -319.486     439.947
  C      166.201    -318.146     441.338
  O      167.586    -318.353     441.040
  O      166.964    -319.575     438.807
  O      169.416    -319.104     439.498
  H      169.735    -319.700     438.771
  H      166.106    -317.374     442.073
  H      165.778    -319.053     441.717
  H      165.684    -317.856     440.447

 6  7  8  9  10  11  12  13  14  15  16  26  30  31  32  33  35 0
 6-311+G(2d,p)
 ****
 37  38 0
 6-311+G(2d,p)
 ****
 1  2  3  4  5  17  18  19  20  21  22  23  24  25 0
 3-21G
 ****
 27  28  29  34  36  39  40  41  42  43  44  45  46 0
 3-21G
 ****


