%nproc=1
%NoSave
%Mem=1900MB
#P OB98/GEN NMR

erre ene a

0 1
  C     -151.914     178.487    -369.440
  O     -151.361     179.015    -368.251
  H     -152.404     179.295    -369.991
  H     -152.661     177.728    -369.196
  H     -151.134     178.052    -370.071
  P     -150.421     178.035    -367.396
  C     -152.683     177.525    -366.228
  O     -151.401     177.043    -366.599
  C     -153.046     177.042    -364.827
  O     -152.939     175.600    -364.747
  C     -152.148     177.593    -363.722
  O     -152.553     178.896    -363.313
  C     -152.396     176.573    -362.625
  O     -153.671     176.829    -361.998
  C     -152.448     175.263    -363.420
  N     -149.856     171.014    -362.443
  C     -151.168     171.347    -362.147
  N     -151.888     170.411    -361.490
  N     -151.722     172.483    -362.465
  C     -150.879     173.329    -363.108
  C     -149.562     173.116    -363.458
  C     -148.965     171.846    -363.112
  O     -147.815     171.496    -363.367
  N     -149.036     174.196    -364.116
  C     -150.024     175.070    -364.146
  N     -151.162     174.594    -363.543
  O     -149.844     178.988    -366.241
  O     -149.319     177.379    -368.158
  H     -153.786     176.153    -361.308
  H     -148.925     178.723    -366.045
  H     -149.477     170.129    -362.164
  H     -149.970     176.055    -364.591
  H     -153.147     174.539    -362.987
  H     -151.642     176.610    -361.838
  H     -151.508     169.534    -361.171
  H     -151.094     177.572    -364.013
  H     -152.860     170.615    -361.289
  H     -154.097     177.304    -364.638
  H     -153.426     177.155    -366.941
  H     -152.676     178.620    -366.259
  P     -151.442     179.843    -362.642
  C     -152.397     179.875    -360.226
  O     -151.376     179.404    -361.099
  O     -152.171     181.271    -362.589
  O     -150.140     179.901    -363.367
  H     -151.504     181.982    -362.550
  H     -152.221     179.503    -359.238
  H     -153.349     179.531    -360.572
  H     -152.388     180.945    -360.211

 6  7  8  9  10  11  12  13  14  15  26  29  33  34 0
 6-311+G(2d,p)
 ****
 36  38  39  40  41 0
 6-311+G(2d,p)
 ****
 1  2  3  4  5  16  17  18  19  20  21  22  23  24  25 0
 3-21G
 ****
 27  28  30  31  32  35  37  42  43  44  45  46  47 0
 3-21G
 ****
 48  49 0
 3-21G
 ****


