%nproc=1
%NoSave
%Mem=1900MB
#P OB98/GEN NMR

erre ene a

0 1
  C      570.981    -290.598    -223.229
  O      569.817    -289.807    -223.077
  H      571.857    -289.955    -223.375
  H      571.124    -291.189    -222.320
  H      570.871    -291.274    -224.079
  P      569.418    -288.863    -224.313
  C      566.844    -289.087    -224.037
  O      567.980    -288.246    -223.942
  C      565.682    -288.471    -223.261
  O      565.832    -288.757    -221.847
  C      565.587    -286.954    -223.369
  O      564.952    -286.547    -224.572
  C      564.729    -286.642    -222.155
  O      563.352    -286.957    -222.432
  C      565.296    -287.616    -221.116
  N      566.316    -284.791    -216.965
  C      565.158    -285.175    -217.533
  N      564.964    -285.922    -218.635
  C      566.149    -286.278    -219.171
  C      567.411    -285.965    -218.710
  C      567.481    -285.178    -217.541
  N      568.666    -284.778    -216.967
  N      568.385    -286.483    -219.545
  C      567.712    -287.134    -220.470
  N      566.355    -287.037    -220.297
  O      569.076    -289.905    -225.485
  O      570.444    -287.859    -224.725
  H      562.874    -286.867    -221.584
  H      569.133    -289.459    -226.351
  H      564.247    -284.833    -217.027
  H      568.157    -287.686    -221.294
  H      564.531    -287.994    -220.428
  H      564.771    -285.583    -221.866
  H      566.566    -286.480    -223.254
  H      564.755    -288.950    -223.597
  H      567.084    -290.069    -223.617
  H      568.602    -284.069    -216.250
  H      569.519    -284.930    -217.470
  H      566.572    -289.208    -225.094
  P      565.306    -285.086    -225.132
  C      565.535    -285.828    -227.619
  O      564.801    -285.064    -226.653
  O      566.899    -285.120    -225.261
  O      564.831    -283.951    -224.275
  H      567.276    -284.221    -225.184
  H      565.082    -285.716    -228.582
  H      565.526    -286.861    -227.339
  H      566.545    -285.478    -227.657

 6  7  8  9  10  11  12  13  14  15  25  28  32  33  34  35 0
 6-311+G(2d,p)
 ****
 36  39  40 0
 6-311+G(2d,p)
 ****
 1  2  3  4  5  16  17  18  19  20  21  22  23  24 0
 3-21G
 ****
 26  27  29  30  31  37  38  41  42  43  44  45  46  47 0
 3-21G
 ****
 48 0
 3-21G
 ****


