%nproc=1
%NoSave
%Mem=1900MB
#P OB98/GEN NMR

erre ene a

0 1
  C     -278.401    -728.580     -60.747
  O     -277.220    -727.859     -60.433
  H     -278.153    -729.340     -61.485
  H     -279.152    -727.913     -61.160
  H     -278.800    -729.072     -59.850
  P     -277.331    -726.755     -59.271
  C     -276.474    -728.162     -57.249
  O     -277.586    -727.573     -57.902
  C     -276.883    -728.637     -55.852
  O     -277.285    -727.469     -55.079
  C     -278.072    -729.611     -55.869
  O     -277.884    -730.584     -54.853
  C     -279.267    -728.727     -55.525
  O     -280.364    -729.434     -54.977
  C     -278.619    -727.739     -54.544
  N     -279.384    -726.496     -54.435
  C     -280.312    -726.411     -53.402
  O     -280.486    -727.277     -52.541
  N     -281.071    -725.271     -53.371
  C     -281.005    -724.236     -54.265
  O     -281.715    -723.248     -54.197
  C     -280.002    -724.380     -55.327
  C     -279.260    -725.488     -55.370
  O     -278.744    -726.054     -59.555
  O     -276.215    -725.764     -59.209
  H     -278.640    -725.303     -60.145
  H     -280.002    -730.104     -54.352
  H     -281.750    -725.197     -52.634
  H     -279.934    -723.589     -56.072
  H     -278.520    -725.637     -56.156
  H     -278.493    -728.193     -53.563
  H     -279.618    -728.203     -56.423
  H     -278.204    -730.105     -56.833
  H     -276.021    -729.069     -55.362
  H     -275.668    -727.419     -57.175
  H     -276.118    -729.012     -57.848
  P     -276.898    -731.832     -55.156
  C     -275.492    -731.005     -53.115
  O     -275.498    -731.435     -54.471
  O     -276.634    -731.605     -56.717
  O     -277.477    -733.145     -54.765
  H     -276.582    -730.668     -56.994
  H     -274.489    -730.781     -52.816
  H     -275.885    -731.782     -52.493
  H     -276.098    -730.128     -53.016

 6  7  8  9  10  11  12  13  14  15  16  27  31  32  33  34  35 0
 6-311+G(2d,p)
 ****
 36  37 0
 6-311+G(2d,p)
 ****
 1  2  3  4  5  17  18  19  20  21  22  23  24  25 0
 3-21G
 ****
 26  28  29  30  38  39  40  41  42  43  44  45 0
 3-21G
 ****


