%nproc=1
%NoSave
%Mem=1900MB
#P OB98/GEN NMR

erre ene a

0 1
  C      337.638     589.902    -180.537
  O      336.733     590.926    -180.117
  P      335.151     590.703    -180.273
  C      334.943     593.270    -179.945
  O      334.378     591.982    -179.675
  C      334.448     594.281    -178.890
  O      333.003     594.363    -178.875
  C      334.837     593.891    -177.470
  O      336.210     593.979    -177.136
  C      333.874     594.721    -176.645
  O      334.336     596.050    -176.454
  C      332.607     594.698    -177.528
  N      331.576     593.780    -177.034
  C      330.941     594.146    -175.852
  O      331.236     595.151    -175.213
  N      329.973     593.281    -175.399
  C      329.615     592.107    -175.991
  O      328.746     591.367    -175.539
  C      330.325     591.765    -177.233
  C      331.269     592.600    -177.690
  O      334.643     589.380    -179.810
  O      334.928     590.874    -181.855
  H      334.508     596.438    -177.338
  H      334.280     590.202    -182.139
  H      329.498     593.540    -174.550
  H      330.069     590.831    -177.720
  H      331.812     592.372    -178.593
  H      332.155     595.698    -177.576
  H      333.734     594.290    -175.639
  H      334.560     592.836    -177.320
  H      334.842     595.274    -179.160
  H      334.661     593.596    -180.942
  H      336.036     593.188    -179.932
  P      336.997     592.809    -176.364
  C      338.585     594.355    -175.000
  O      338.462     593.352    -175.994
  O      336.891     591.427    -176.914
  O      336.267     592.844    -174.929
  H      336.255     591.936    -174.566
  H      339.647     594.609    -174.891
  H      338.206     593.979    -174.049
  H      338.038     595.251    -175.299
  H      338.644     590.220    -180.360
  H      337.503     589.713    -181.581
  H      337.445     589.006    -179.984

 3  4  5  6  7  8  9  10  11  12  13  23  28  29  30  31  32 0
 6-311+G(2d,p)
 ****
 33  34 0
 6-311+G(2d,p)
 ****
 1  2  14  15  16  17  18  19  20  21  22  24  25  26  27 0
 3-21G
 ****
 35  36  37  38  39  40  41  42  43  44  45 0
 3-21G
 ****


