%nproc=1
%NoSave
%Mem=1900MB
#P OB98/GEN NMR

erre ene a

0 1
  C      659.751    -382.384     -40.605
  O      658.608    -383.215     -40.591
  H      660.551    -382.879     -40.044
  H      659.533    -381.424     -40.133
  H      660.086    -382.227     -41.634
  P      657.302    -382.649     -41.330
  C      657.163    -382.238     -43.872
  O      657.437    -383.179     -42.838
  C      657.699    -382.739     -45.209
  O      659.138    -382.889     -45.112
  C      657.119    -384.102     -45.621
  O      656.911    -384.120     -47.033
  C      658.226    -385.080     -45.267
  O      658.170    -386.270     -46.049
  C      659.476    -384.230     -45.491
  N      664.028    -386.542     -45.744
  C      663.189    -386.067     -46.697
  N      662.010    -385.445     -46.546
  C      661.720    -385.293     -45.243
  C      662.459    -385.722     -44.155
  C      663.673    -386.383     -44.449
  N      664.506    -386.892     -43.479
  N      661.810    -385.414     -42.975
  C      660.709    -384.798     -43.340
  N      660.599    -384.712     -44.699
  O      657.055    -381.184     -41.183
  O      656.152    -383.597     -40.731
  H      657.374    -386.785     -45.774
  H      656.440    -384.526     -40.709
  H      663.528    -386.212     -47.725
  H      659.951    -384.412     -42.671
  H      659.800    -384.237     -46.540
  H      658.136    -385.368     -44.211
  H      656.193    -384.337     -45.104
  H      657.508    -381.986     -45.980
  H      657.631    -381.276     -43.636
  H      665.363    -387.339     -43.768
  H      664.274    -386.761     -42.496
  H      656.077    -382.094     -43.920
  P      655.431    -383.819     -47.592
  C      653.999    -381.677     -47.770
  O      655.308    -382.244     -47.873
  O      654.311    -384.417     -46.814
  O      655.496    -384.424     -49.068
  H      654.638    -384.832     -49.279
  H      654.047    -380.629     -47.978
  H      653.622    -381.827     -46.780
  H      653.348    -382.151     -48.475

 6  7  8  9  10  11  12  13  14  15  25  28  32  33  34  35 0
 6-311+G(2d,p)
 ****
 36  39  40 0
 6-311+G(2d,p)
 ****
 1  2  3  4  5  16  17  18  19  20  21  22  23  24 0
 3-21G
 ****
 26  27  29  30  31  37  38  41  42  43  44  45  46  47 0
 3-21G
 ****
 48 0
 3-21G
 ****


