%nproc=1
%NoSave
%Mem=1900MB
#P OB98/GEN NMR

erre ene a

0 1
  C     -134.486    -202.057      88.797
  O     -133.589    -203.049      88.313
  P     -134.106    -204.533      87.998
  C     -132.674    -204.462      85.862
  O     -133.013    -205.203      87.030
  C     -132.110    -205.386      84.781
  O     -130.825    -205.890      85.221
  C     -133.001    -206.588      84.488
  O     -132.929    -206.889      83.090
  C     -132.352    -207.730      85.252
  O     -132.662    -209.001      84.651
  C     -130.874    -207.332      85.196
  N     -128.536    -211.428      87.231
  C     -129.177    -211.253      86.057
  N     -129.795    -210.145      85.592
  C     -129.663    -209.129      86.459
  C     -129.030    -209.153      87.693
  C     -128.450    -210.374      88.081
  N     -127.784    -210.550      89.277
  N     -129.123    -207.924      88.318
  C     -129.776    -207.166      87.461
  N     -130.114    -207.843      86.323
  O     -135.510    -204.623      87.504
  O     -133.908    -205.328      89.371
  H     -132.019    -209.650      85.003
  H     -134.648    -205.950      89.515
  H     -129.199    -212.122      85.401
  H     -130.038    -206.128      87.623
  H     -130.395    -207.672      84.268
  H     -132.726    -207.744      86.282
  H     -134.044    -206.430      84.783
  H     -131.939    -204.794      83.870
  H     -131.916    -203.720      86.134
  H     -127.296    -211.423      89.414
  H     -127.573    -209.727      89.826
  H     -133.560    -203.929      85.496
  P     -134.265    -206.595      82.237
  C     -133.160    -204.677      80.868
  O     -133.739    -205.963      80.862
  O     -135.267    -205.802      83.015
  O     -134.729    -208.085      81.866
  H     -133.967    -208.712      81.870
  H     -132.902    -204.407      79.837
  H     -132.244    -204.678      81.463
  H     -133.866    -203.939      81.262
  H     -133.956    -201.139      88.946
  H     -134.908    -202.380      89.726
  H     -135.269    -201.905      88.084

 3  4  5  6  7  8  9  10  11  12  22  25  29  30  31  32 0
 6-311+G(2d,p)
 ****
 33  36  37 0
 6-311+G(2d,p)
 ****
 1  2  13  14  15  16  17  18  19  20  21  23  24  26 0
 3-21G
 ****
 27  28  34  35  38  39  40  41  42  43  44  45  46  47  48 0
 3-21G
 ****


