%nproc=1
%NoSave
%Mem=1900MB
#P OB98/GEN NMR

erre ene a

0 1
  C     -164.107    -249.325    -515.808
  O     -165.463    -248.944    -515.943
  H     -163.964    -250.289    -516.304
  H     -163.834    -249.431    -514.754
  H     -163.462    -248.584    -516.287
  P     -165.991    -247.708    -515.069
  C     -167.660    -249.295    -513.894
  O     -167.497    -248.095    -514.649
  C     -169.136    -249.652    -513.728
  O     -169.868    -248.544    -513.156
  C     -169.857    -249.960    -515.035
  O     -169.424    -251.129    -515.685
  C     -171.314    -249.824    -514.628
  O     -171.818    -251.006    -514.008
  C     -171.241    -248.670    -513.591
  N     -171.753    -247.418    -514.121
  C     -173.132    -247.344    -514.302
  O     -173.899    -248.282    -514.058
  N     -173.612    -246.165    -514.812
  C     -172.854    -245.098    -515.193
  O     -173.346    -244.073    -515.660
  C     -171.400    -245.239    -515.015
  C     -170.922    -246.376    -514.498
  O     -165.868    -246.355    -515.708
  O     -165.192    -247.846    -513.688
  H     -172.773    -250.865    -513.855
  H     -165.246    -247.012    -513.159
  H     -174.610    -246.089    -514.930
  H     -170.773    -244.411    -515.316
  H     -169.856    -246.503    -514.355
  H     -171.829    -248.930    -512.698
  H     -171.963    -249.604    -515.480
  H     -169.652    -249.135    -515.735
  H     -169.205    -250.495    -513.027
  H     -167.211    -249.131    -512.907
  H     -167.124    -250.115    -514.392
  P     -168.925    -251.173    -517.201
  C     -171.113    -252.492    -517.768
  O     -169.709    -252.348    -517.959
  O     -167.449    -251.047    -517.426
  O     -169.623    -249.849    -517.811
  H     -169.012    -249.485    -518.484
  H     -171.468    -253.320    -518.345
  H     -171.609    -251.598    -518.084
  H     -171.316    -252.666    -516.732

 6  7  8  9  10  11  12  13  14  15  16  26  31  32  33  34  35 0
 6-311+G(2d,p)
 ****
 36  37 0
 6-311+G(2d,p)
 ****
 1  2  3  4  5  17  18  19  20  21  22  23  24  25 0
 3-21G
 ****
 27  28  29  30  38  39  40  41  42  43  44  45 0
 3-21G
 ****


