%nproc=1
%NoSave
%Mem=1900MB
#P OB98/GEN NMR

erre ene a

0 1
  C      214.683     -21.796     732.987
  O      214.220     -20.447     732.829
  P      214.631     -19.546     731.558
  C      212.416     -19.538     730.229
  O      213.760     -20.025     730.293
  C      211.934     -19.387     728.790
  O      211.700     -20.684     728.188
  C      210.624     -18.624     728.632
  O      210.849     -17.225     728.731
  C      210.150     -19.104     727.263
  O      210.820     -18.382     726.222
  C      210.593     -20.573     727.277
  N      206.067     -22.524     725.891
  C      206.907     -21.655     725.276
  N      208.096     -21.176     725.712
  C      208.406     -21.713     726.911
  C      207.654     -22.611     727.654
  C      206.426     -23.020     727.101
  N      205.575     -23.890     727.734
  N      208.284     -22.915     728.847
  C      209.411     -22.221     728.797
  N      209.532     -21.490     727.656
  O      216.102     -19.481     731.303
  O      214.040     -18.093     731.891
  H      210.542     -18.766     725.370
  H      214.585     -17.410     731.443
  H      206.578     -21.296     724.306
  H      210.168     -22.232     729.576
  H      210.964     -20.890     726.293
  H      209.070     -18.965     727.114
  H      209.909     -18.947     729.402
  H      212.729     -18.903     728.211
  H      212.381     -18.561     730.734
  H      204.690     -24.115     727.288
  H      205.806     -24.226     728.660
  H      211.769     -20.243     730.773
  P      209.613     -16.209     728.704
  C      208.967     -16.445     731.179
  O      208.580     -16.679     729.834
  O      209.018     -15.949     727.360
  O      210.218     -14.860     729.337
  H      209.755     -14.093     728.954
  H      209.670     -17.219     731.494
  H      208.076     -16.486     731.807
  H      209.429     -15.462     731.290
  H      214.291     -22.204     733.895
  H      215.752     -21.804     733.025
  H      214.351     -22.386     732.159

 3  4  5  6  7  8  9  10  11  12  22  25  29  30  31  32 0
 6-311+G(2d,p)
 ****
 33  36  37 0
 6-311+G(2d,p)
 ****
 1  2  13  14  15  16  17  18  19  20  21  23  24  26 0
 3-21G
 ****
 27  28  34  35  38  39  40  41  42  43  44  45  46  47  48 0
 3-21G
 ****


