%nproc=1
%NoSave
%Mem=1900MB
#P OB98/GEN NMR

erre ene a

0 1
  C      958.089    -890.370     -20.986
  O      957.295    -890.400     -22.191
  P      956.410    -891.700     -22.460
  C      958.389    -893.040     -23.539
  O      957.434    -892.940     -22.505
  C      958.952    -894.470     -23.630
  O      957.926    -895.420     -23.261
  C      959.431    -894.860     -25.019
  O      960.665    -894.260     -25.350
  C      959.475    -896.370     -24.876
  O      960.666    -896.780     -24.215
  C      958.262    -896.660     -23.955
  N      957.097    -897.190     -24.666
  C      957.198    -898.530     -25.038
  O      958.159    -899.240     -24.802
  N      956.112    -899.010     -25.709
  C      954.964    -898.330     -26.073
  O      954.038    -898.840     -26.655
  C      954.978    -896.910     -25.679
  C      956.009    -896.410     -25.022
  O      955.998    -891.480     -23.977
  O      955.272    -891.830     -21.492
  H      956.698    -891.070     -24.516
  H      961.428    -896.530     -24.803
  H      956.146    -900.000     -25.987
  H      954.121    -896.320     -25.993
  H      956.044    -895.360     -24.739
  H      958.545    -897.360     -23.138
  H      959.442    -896.890     -25.810
  H      958.693    -894.590     -25.744
  H      959.801    -894.520     -22.902
  H      959.230    -892.340     -23.322
  H      957.938    -892.740     -24.479
  P      960.602    -892.950     -26.279
  C      960.846    -894.710     -28.203
  O      960.313    -893.460     -27.787
  O      962.154    -892.520     -26.309
  O      959.678    -891.890     -25.808
  H      962.749    -893.280     -26.446
  H      960.247    -895.050     -29.074
  H      960.793    -895.470     -27.441
  H      961.895    -894.560     -28.521
  H      958.627    -889.446     -20.936
  H      958.781    -891.186     -20.995
  H      957.447    -890.456     -20.134

 3  4  5  6  7  8  9  10  11  12  13  24  28  29  30  31  32 0
 6-311+G(2d,p)
 ****
 33  34 0
 6-311+G(2d,p)
 ****
 1  2  14  15  16  17  18  19  20  21  22  23  25  26  27 0
 3-21G
 ****
 35  36  37  38  39  40  41  42  43  44  45 0
 3-21G
 ****


