%nproc=1
%NoSave
%Mem=1900MB
#P OB98/GEN NMR

erre ene a

0 1
  C      -89.423     772.998    -390.051
  O      -89.532     773.931    -391.110
  P      -89.132     775.466    -390.885
  C      -86.730     774.695    -391.418
  O      -87.561     775.456    -390.549
  C      -85.314     775.272    -391.467
  O      -85.291     776.490    -392.243
  C      -84.750     775.642    -390.103
  O      -84.317     774.478    -389.415
  C      -83.630     776.591    -390.502
  O      -82.446     775.877    -390.884
  C      -84.246     777.330    -391.709
  N      -84.731     778.655    -391.373
  C      -83.760     779.579    -390.975
  O      -82.580     779.244    -390.902
  N      -84.153     780.851    -390.633
  C      -85.424     781.159    -390.651
  N      -85.750     782.430    -390.296
  C      -86.473     780.205    -391.031
  C      -86.070     778.981    -391.373
  O      -89.990     776.214    -389.924
  O      -89.169     776.071    -392.376
  H      -81.868     776.528    -391.327
  H      -90.098     776.193    -392.684
  H      -87.517     780.504    -391.021
  H      -86.781     778.214    -391.662
  H      -83.495     777.433    -392.515
  H      -83.348     777.266    -389.677
  H      -85.502     776.179    -389.519
  H      -84.665     774.539    -391.964
  H      -85.004     783.045    -390.008
  H      -87.167     774.720    -392.423
  H      -86.695     782.758    -390.240
  H      -86.711     773.652    -391.082
  P      -84.193     774.492    -387.813
  C      -86.661     773.825    -387.570
  O      -85.653     774.757    -387.219
  O      -83.113     775.364    -387.266
  O      -83.928     772.963    -387.452
  H      -83.217     772.918    -386.776
  H      -87.490     773.915    -386.862
  H      -86.270     772.805    -387.540
  H      -87.032     774.047    -388.577
  H      -89.733     772.033    -390.393
  H      -90.047     773.306    -389.238
  H      -88.406     772.950    -389.722

 3  4  5  6  7  8  9  10  11  12  13  23  27  28  29  30  32 0
 6-311+G(2d,p)
 ****
 34  35 0
 6-311+G(2d,p)
 ****
 1  2  14  15  16  17  18  19  20  21  22  24  25  26 0
 3-21G
 ****
 31  33  36  37  38  39  40  41  42  43  44  45  46 0
 3-21G
 ****


