%nproc=1
%NoSave
%Mem=1900MB
#P OB98/GEN NMR

erre ene a

0 1
  C      -89.171     395.888    -552.982
  O      -89.553     395.310    -551.749
  H      -90.063     396.271    -553.482
  H      -88.704     395.138    -553.625
  H      -88.481     396.714    -552.810
  P      -88.391     394.587    -550.908
  C      -90.200     392.943    -549.988
  O      -88.968     393.103    -550.675
  C      -91.031     391.852    -550.650
  O      -91.659     392.346    -551.857
  C      -90.236     390.628    -551.090
  O      -89.900     389.757    -550.024
  C      -91.231     389.998    -552.050
  O      -92.280     389.362    -551.302
  C      -91.747     391.246    -552.796
  N      -90.976     391.550    -554.011
  C      -91.580     391.235    -555.232
  O      -92.705     390.737    -555.269
  N      -90.885     391.468    -556.395
  C      -89.696     391.988    -556.350
  N      -89.056     392.191    -557.526
  C      -89.024     392.342    -555.079
  C      -89.713     392.097    -553.970
  O      -88.516     395.248    -549.457
  O      -87.022     394.643    -551.502
  H      -92.597     390.015    -550.648
  H      -87.939     394.762    -548.813
  H      -88.024     392.755    -555.088
  H      -89.282     392.334    -553.000
  H      -92.798     391.132    -553.074
  H      -90.787     389.235    -552.688
  H      -89.332     390.917    -551.653
  H      -91.834     391.574    -549.950
  H      -89.519     391.882    -558.376
  H      -90.737     393.900    -550.024
  H      -88.076     392.448    -557.586
  H      -90.014     392.678    -548.945
  P      -88.378     389.258    -549.925
  C      -88.979     387.358    -548.245
  O      -88.417     387.712    -549.503
  O      -87.834     389.987    -548.607
  O      -87.532     389.571    -551.131
  H      -86.891     390.222    -548.698
  H      -88.928     386.297    -548.118
  H      -90.001     387.673    -548.210
  H      -88.430     387.838    -547.462

 6  7  8  9  10  11  12  13  14  15  16  26  30  31  32  33  35 0
 6-311+G(2d,p)
 ****
 37  38 0
 6-311+G(2d,p)
 ****
 1  2  3  4  5  17  18  19  20  21  22  23  24  25 0
 3-21G
 ****
 27  28  29  34  36  39  40  41  42  43  44  45  46 0
 3-21G
 ****


