%nproc=1
%NoSave
%Mem=1900MB
#P OB98/GEN NMR

erre ene a

0 1
  C      -92.814     174.939     -35.046
  O      -93.476     176.178     -35.213
  H      -92.583     174.528     -36.032
  H      -93.460     174.235     -34.513
  H      -91.881     175.081     -34.493
  P      -93.956     176.913     -33.869
  C      -96.451     176.953     -34.577
  O      -95.297     177.713     -34.248
  C      -97.269     177.661     -35.655
  O      -97.874     178.861     -35.130
  C      -96.465     178.073     -36.883
  O      -96.330     176.991     -37.790
  C      -97.323     179.201     -37.434
  O      -98.443     178.679     -38.183
  C      -97.805     179.897     -36.152
  N      -97.118     184.899     -36.282
  C      -98.044     184.108     -36.933
  N      -98.903     184.739     -37.767
  N      -98.122     182.811     -36.793
  C      -97.168     182.305     -35.974
  C      -96.194     182.983     -35.273
  C      -96.157     184.425     -35.397
  O      -95.414     185.189     -34.781
  N      -95.423     182.121     -34.535
  C      -95.908     180.925     -34.818
  N      -96.964     180.985     -35.689
  O      -92.873     178.080     -33.676
  O      -94.037     176.048     -32.658
  H      -99.070     178.257     -37.569
  H      -92.688     178.180     -32.723
  H      -97.127     185.896     -36.401
  H      -95.540     179.991     -34.408
  H      -98.816     180.307     -36.264
  H      -96.763     179.835     -38.122
  H      -98.711     185.662     -38.132
  H      -95.484     178.473     -36.596
  H      -99.531     184.149     -38.299
  H      -98.088     176.988     -35.943
  H      -97.062     176.833     -33.677
  H      -96.143     175.964     -34.934
  P      -95.189     177.079     -38.910
  C      -96.942     176.401     -40.705
  O      -95.650     176.177     -40.158
  O      -93.989     176.235     -38.264
  O      -94.748     178.463     -39.247
  H      -93.292     176.842     -37.947
  H      -97.104     175.730     -41.523
  H      -97.012     177.411     -41.052
  H      -97.683     176.231     -39.952

 6  7  8  9  10  11  12  13  14  15  26  29  33  34 0
 6-311+G(2d,p)
 ****
 36  38  39  40  41 0
 6-311+G(2d,p)
 ****
 1  2  3  4  5  16  17  18  19  20  21  22  23  24  25 0
 3-21G
 ****
 27  28  30  31  32  35  37  42  43  44  45  46  47 0
 3-21G
 ****
 48  49 0
 3-21G
 ****


