%nproc=1
%NoSave
%Mem=1900MB
#P OB98/GEN NMR

erre ene a

0 1
  C       38.333     -12.900     262.716
  O       38.115     -13.715     261.580
  H       37.873     -11.925     262.540
  H       39.404     -12.759     262.880
  H       37.875     -13.354     263.597
  P       38.765     -15.182     261.606
  C       41.043     -14.466     260.582
  O       40.353     -14.978     261.713
  C       42.398     -15.154     260.452
  O       43.230     -14.819     261.588
  C       42.323     -16.674     260.439
  O       41.925     -17.181     259.176
  C       43.756     -17.037     260.795
  O       44.607     -17.021     259.639
  C       44.146     -15.916     261.785
  N       44.151     -16.382     263.168
  C       45.235     -17.176     263.532
  O       46.142     -17.480     262.754
  N       45.227     -17.647     264.819
  C       44.243     -17.437     265.740
  O       44.261     -17.949     266.852
  C       43.130     -16.579     265.303
  C       43.128     -16.105     264.055
  O       38.546     -15.700     260.107
  O       38.182     -16.113     262.616
  H       37.800     -16.328     260.078
  H       45.420     -17.500     259.892
  H       45.997     -18.232     265.097
  H       42.333     -16.386     266.015
  H       42.307     -15.487     263.702
  H       45.148     -15.535     261.553
  H       43.821     -18.037     261.223
  H       41.658     -17.029     261.235
  H       42.892     -14.783     259.544
  H       41.201     -13.388     260.706
  H       40.434     -14.631     259.686
  P       40.862     -18.383     259.132
  C       42.750     -20.174     259.496
  O       41.526     -19.607     259.926
  O       40.951     -18.817     257.597
  O       39.500     -17.995     259.600
  H       41.848     -18.744     257.231
  H       43.023     -20.973     260.153
  H       43.514     -19.425     259.508
  H       42.638     -20.553     258.502

 6  7  8  9  10  11  12  13  14  15  16  27  31  32  33  34  35 0
 6-311+G(2d,p)
 ****
 36  37 0
 6-311+G(2d,p)
 ****
 1  2  3  4  5  17  18  19  20  21  22  23  24  25 0
 3-21G
 ****
 26  28  29  30  38  39  40  41  42  43  44  45 0
 3-21G
 ****


