%nproc=1
%NoSave
%Mem=1900MB
#P OB98/GEN NMR

erre ene a

0 1
  C      796.624     703.384     224.759
  O      795.536     703.370     225.666
  H      797.237     704.272     224.955
  H      796.268     703.442     223.725
  H      797.245     702.497     224.888
  P      794.413     702.248     225.474
  C      792.646     704.053     224.901
  O      793.332     702.889     224.466
  C      791.613     704.463     223.852
  O      792.262     704.961     222.668
  C      790.737     703.311     223.381
  O      789.761     702.984     224.355
  C      790.206     703.857     222.077
  O      789.115     704.769     222.301
  C      791.444     704.610     221.536
  N      792.199     703.819     220.564
  C      791.463     703.297     219.494
  O      790.253     703.501     219.400
  N      792.120     702.514     218.566
  C      793.396     702.308     218.684
  N      793.987     701.525     217.726
  C      794.214     702.855     219.787
  C      793.547     703.587     220.681
  O      793.814     701.662     226.718
  O      795.134     701.134     224.575
  H      788.920     705.165     221.431
  H      795.579     700.479     225.145
  H      795.271     702.648     219.842
  H      794.076     704.029     221.518
  H      791.142     705.551     221.055
  H      789.851     703.064     221.419
  H      791.356     702.433     223.153
  H      790.999     705.277     224.269
  H      793.382     701.171     217.001
  H      793.389     704.843     225.014
  H      794.974     701.364     217.664
  H      792.156     703.874     225.863
  P      788.977     701.591     224.305
  C      786.634     702.664     224.443
  O      787.549     701.924     223.633
  O      788.928     700.834     225.584
  O      789.738     700.798     223.118
  H      790.618     700.477     223.421
  H      785.727     702.826     223.899
  H      787.068     703.607     224.701
  H      786.422     702.113     225.335

 6  7  8  9  10  11  12  13  14  15  16  26  30  31  32  33  35 0
 6-311+G(2d,p)
 ****
 37  38 0
 6-311+G(2d,p)
 ****
 1  2  3  4  5  17  18  19  20  21  22  23  24  25 0
 3-21G
 ****
 27  28  29  34  36  39  40  41  42  43  44  45  46 0
 3-21G
 ****


