%nproc=1
%NoSave
%Mem=1900MB
#P OB98/GEN NMR

erre ene a

0 1
  C      282.266     567.851    -443.452
  O      282.357     567.132    -444.660
  H      282.379     568.915    -443.670
  H      283.069     567.549    -442.778
  H      281.299     567.695    -442.969
  P      281.938     565.585    -444.680
  C      279.912     566.626    -445.881
  O      280.402     565.528    -445.129
  C      278.416     566.470    -446.177
  O      278.220     565.281    -447.001
  C      277.556     566.304    -444.925
  O      276.269     566.865    -445.206
  C      277.443     564.795    -444.809
  O      276.381     564.400    -443.974
  C      277.316     564.410    -446.292
  N      277.607     563.000    -446.532
  C      276.790     562.076    -445.883
  O      275.875     562.406    -445.104
  N      277.070     560.759    -446.107
  C      278.110     560.275    -446.851
  O      278.326     559.080    -446.986
  C      278.964     561.300    -447.485
  C      278.674     562.589    -447.294
  O      282.257     564.814    -443.432
  O      282.698     564.982    -445.950
  H      275.522     564.715    -444.340
  H      282.912     564.042    -445.805
  H      276.480     560.077    -445.640
  H      279.807     560.953    -448.074
  H      279.286     563.364    -447.749
  H      276.299     564.610    -446.653
  H      278.361     564.374    -444.384
  H      277.983     566.761    -444.033
  H      278.081     567.328    -446.780
  H      280.477     566.660    -446.827
  H      280.084     567.562    -445.333
  P      275.393     567.616    -444.075
  C      274.092     569.050    -445.775
  O      274.950     569.045    -444.635
  O      276.049     567.650    -442.730
  O      274.011     566.803    -444.023
  H      273.624     566.863    -443.128
  H      273.870     570.060    -446.050
  H      273.183     568.536    -445.540
  H      274.579     568.557    -446.590

 6  7  8  9  10  11  12  13  14  15  16  26  31  32  33  34  35 0
 6-311+G(2d,p)
 ****
 36  37 0
 6-311+G(2d,p)
 ****
 1  2  3  4  5  17  18  19  20  21  22  23  24  25 0
 3-21G
 ****
 27  28  29  30  38  39  40  41  42  43  44  45 0
 3-21G
 ****


