%nproc=1
%NoSave
%Mem=1900MB
#P OB98/GEN NMR

erre ene a

0 1
  C     -345.786     615.647     194.890
  O     -345.929     614.258     194.664
  H     -346.778     616.107     194.876
  H     -345.183     616.098     194.097
  H     -345.326     615.836     195.862
  P     -344.624     613.324     194.732
  C     -346.064     611.643     196.036
  O     -345.145     611.822     194.968
  C     -346.355     610.155     196.245
  O     -347.227     609.697     195.183
  C     -345.101     609.277     196.237
  O     -345.269     608.242     197.207
  C     -345.104     608.673     194.843
  O     -344.421     607.422     194.793
  C     -346.598     608.565     194.549
  N     -345.805     606.047     190.241
  C     -345.456     605.729     191.539
  N     -344.771     604.576     191.719
  N     -345.749     606.472     192.571
  C     -346.450     607.586     192.250
  C     -346.848     608.016     191.009
  C     -346.506     607.189     189.870
  O     -346.774     607.431     188.694
  N     -347.513     609.220     191.085
  C     -347.512     609.510     192.375
  N     -346.866     608.560     193.119
  O     -343.567     613.771     195.689
  O     -344.091     613.295     193.224
  H     -344.261     607.216     193.849
  H     -343.345     613.913     193.111
  H     -345.541     605.442     189.483
  H     -347.952     610.396     192.813
  H     -347.040     607.649     194.961
  H     -344.612     609.362     194.141
  H     -344.525     603.945     190.974
  H     -344.183     609.836     196.441
  H     -344.524     604.308     192.667
  H     -346.911     610.040     197.184
  H     -346.988     612.166     195.787
  H     -345.646     612.073     196.953
  P     -343.964     607.557     197.842
  C     -343.364     609.473     199.454
  O     -343.779     608.123     199.331
  O     -342.737     607.597     196.991
  O     -344.441     606.044     198.098
  H     -343.670     605.455     198.018
  H     -343.278     609.727     200.490
  H     -344.086     610.112     198.989
  H     -342.415     609.599     198.976

 6  7  8  9  10  11  12  13  14  15  26  29  33  34 0
 6-311+G(2d,p)
 ****
 36  38  39  40  41 0
 6-311+G(2d,p)
 ****
 1  2  3  4  5  16  17  18  19  20  21  22  23  24  25 0
 3-21G
 ****
 27  28  30  31  32  35  37  42  43  44  45  46  47 0
 3-21G
 ****
 48  49 0
 3-21G
 ****


