%nproc=1
%NoSave
%Mem=1900MB
#P OB98/GEN NMR

erre ene a

0 1
  C      449.471    -939.469     -92.826
  O      448.545    -939.526     -91.766
  H      449.807    -938.433     -92.941
  H      448.984    -939.782     -93.759
  H      450.344    -940.098     -92.634
  P      448.245    -940.941     -91.088
  C      449.121    -940.558     -88.680
  O      449.346    -941.200     -89.936
  C      450.427    -940.354     -87.912
  O      451.186    -939.293     -88.514
  C      450.180    -939.960     -86.452
  O      450.013    -941.058     -85.559
  C      451.464    -939.178     -86.135
  O      452.499    -940.051     -85.646
  C      451.842    -938.552     -87.471
  N      453.158    -933.743     -86.375
  C      453.733    -934.925     -85.909
  N      454.729    -934.791     -85.022
  N      453.314    -936.115     -86.270
  C      452.229    -936.073     -87.089
  C      451.595    -934.976     -87.604
  C      452.098    -933.662     -87.252
  O      451.653    -932.599     -87.648
  N      450.505    -935.331     -88.385
  C      450.454    -936.632     -88.254
  N      451.524    -937.142     -87.562
  O      448.681    -941.998     -92.220
  O      446.823    -941.171     -90.666
  H      452.165    -940.500     -84.847
  H      448.131    -942.794     -92.148
  H      453.554    -932.858     -86.064
  H      449.684    -937.275     -88.687
  H      452.932    -938.646     -87.647
  H      451.274    -938.447     -85.334
  H      455.027    -933.910     -84.620
  H      449.335    -939.262     -86.373
  H      455.035    -935.618     -84.502
  H      451.033    -941.266     -87.971
  H      448.447    -941.220     -88.119
  H      448.606    -939.603     -88.827
  P      448.577    -941.416     -84.965
  C      448.152    -943.748     -86.103
  O      447.834    -942.367     -85.997
  O      447.771    -940.022     -85.097
  O      448.569    -941.938     -83.561
  H      447.771    -939.560     -84.262
  H      447.537    -944.199     -86.854
  H      447.976    -944.228     -85.163
  H      449.182    -943.857     -86.372

 6  7  8  9  10  11  12  13  14  15  26  29  33  34 0
 6-311+G(2d,p)
 ****
 36  38  39  40  41 0
 6-311+G(2d,p)
 ****
 1  2  3  4  5  16  17  18  19  20  21  22  23  24  25 0
 3-21G
 ****
 27  28  30  31  32  35  37  42  43  44  45  46  47 0
 3-21G
 ****
 48  49 0
 3-21G
 ****


