%nproc=1
%NoSave
%Mem=1900MB
#P OB98/GEN NMR

erre ene a

0 1
  C       -2.514    -215.455    -307.163
  O       -2.729    -216.571    -308.032
  P       -3.606    -217.785    -307.443
  C       -6.131    -218.419    -307.391
  O       -5.134    -217.515    -307.852
  C       -7.402    -218.292    -308.226
  O       -8.031    -217.012    -308.022
  C       -7.177    -218.388    -309.728
  O       -7.036    -219.735    -310.155
  C       -8.468    -217.787    -310.262
  O       -9.504    -218.785    -310.275
  C       -8.784    -216.697    -309.220
  N       -9.993    -212.819    -312.250
  C      -10.622    -214.037    -312.078
  N      -11.749    -214.240    -312.797
  N      -10.187    -214.972    -311.276
  C       -9.066    -214.618    -310.599
  C       -8.351    -213.447    -310.683
  C       -8.828    -212.431    -311.600
  O       -8.291    -211.348    -311.815
  N       -7.272    -213.450    -309.835
  C       -7.350    -214.614    -309.217
  N       -8.414    -215.366    -309.656
  O       -3.591    -217.503    -305.867
  O       -3.071    -219.136    -307.776
  H       -9.652    -219.057    -309.346
  H       -3.706    -218.340    -305.377
  H      -10.368    -212.137    -312.887
  H       -6.669    -214.955    -308.447
  H       -9.844    -216.691    -308.949
  H       -8.374    -217.416    -311.289
  H      -12.177    -213.536    -313.379
  H       -6.323    -217.767    -310.037
  H      -12.241    -215.113    -312.656
  H       -8.101    -219.077    -307.904
  H       -6.362    -218.212    -306.344
  H       -5.734    -219.438    -307.431
  P       -5.540    -220.303    -310.308
  C       -3.865    -221.418    -308.672
  O       -5.084    -220.718    -308.831
  O       -4.684    -218.987    -310.626
  O       -5.382    -221.342    -311.367
  H       -3.900    -219.214    -311.159
  H       -3.078    -220.988    -309.298
  H       -4.009    -222.471    -308.932
  H       -3.557    -221.349    -307.624
  H       -1.921    -214.720    -307.666
  H       -2.003    -215.782    -306.282
  H       -3.457    -215.028    -306.891

 3  4  5  6  7  8  9  10  11  12  23  26  30  31  33  0
 6-311+G(2d,p)
 ****
 35  36  37  38 0
 6-311+G(2d,p)
 ****
 1  2  13  14  15  16  17  18  19  20  21  22  24  25  27  28  29 0
 3-21G
 ****
 32  34  39  40  41  42  43  44  45  46  47  48  49 0
 3-21G
 ****


