%nproc=1
%NoSave
%Mem=1900MB
#P OB98/GEN NMR

erre ene a

0 1
  C      -16.487     -45.714    -176.302
  O      -17.339     -45.577    -177.448
  P      -17.103     -44.467    -178.581
  C      -15.330     -45.778    -179.920
  O      -16.626     -45.183    -179.932
  C      -14.627     -45.625    -181.273
  O      -13.228     -45.949    -181.156
  C      -15.162     -46.527    -182.377
  O      -16.393     -46.044    -182.882
  C      -14.003     -46.491    -183.371
  O      -14.065     -45.313    -184.192
  C      -12.780     -46.442    -182.433
  N      -12.122     -47.736    -182.307
  C      -11.699     -48.341    -183.494
  O      -11.935     -47.815    -184.582
  N      -11.037     -49.544    -183.419
  C      -10.882     -50.123    -182.270
  N      -10.214     -51.308    -182.256
  C      -11.394     -49.563    -181.005
  C      -11.995     -48.378    -181.098
  O      -16.227     -43.335    -178.149
  O      -18.568     -43.928    -178.944
  H      -13.218     -45.270    -184.678
  H      -18.506     -42.993    -179.214
  H      -11.268     -50.091    -180.072
  H      -12.393     -47.891    -180.215
  H      -12.047     -45.712    -182.799
  H      -14.002     -47.353    -184.045
  H      -15.280     -47.549    -181.996
  H      -14.702     -44.570    -181.571
  H       -9.870     -51.662    -183.139
  H      -15.445     -46.844    -179.691
  H      -10.037     -51.840    -181.416
  H      -14.736     -45.311    -179.129
  P      -17.717     -46.932    -182.731
  C      -18.957     -46.445    -180.538
  O      -18.781     -46.077    -181.894
  O      -17.507     -48.331    -182.254
  O      -18.347     -46.922    -184.208
  H      -18.815     -47.764    -184.356
  H      -19.364     -45.590    -179.992
  H      -18.007     -46.740    -180.081
  H      -19.665     -47.276    -180.477
  H      -16.840     -46.517    -175.689
  H      -16.498     -44.804    -175.739
  H      -15.488     -45.922    -176.623

 3  4  5  6  7  8  9  10  11  12  13  23  27  28  29  30  32 0
 6-311+G(2d,p)
 ****
 34  35 0
 6-311+G(2d,p)
 ****
 1  2  14  15  16  17  18  19  20  21  22  24  25  26 0
 3-21G
 ****
 31  33  36  37  38  39  40  41  42  43  44  45  46 0
 3-21G
 ****


