%nproc=1
%NoSave
%Mem=1900MB
#P OB98/GEN NMR

erre ene a

0 1
  C      -26.888     271.330     273.244
  O      -27.201     270.838     274.535
  P      -26.293     271.367     275.754
  C      -24.618     269.521     276.543
  O      -24.899     270.583     275.644
  C      -25.208     268.216     275.998
  O      -25.009     268.137     274.574
  C      -24.585     266.956     276.587
  O      -25.161     266.659     277.848
  C      -24.905     265.927     275.506
  O      -26.257     265.447     275.635
  C      -24.731     266.750     274.224
  N      -22.166     265.220     270.143
  C      -23.490     265.017     270.491
  N      -24.247     264.345     269.594
  N      -24.023     265.435     271.606
  C      -23.141     266.079     272.411
  C      -21.803     266.331     272.189
  C      -21.244     265.909     270.925
  O      -20.108     266.146     270.529
  N      -21.232     266.990     273.245
  C      -22.229     267.166     274.089
  N      -23.412     266.653     273.623
  O      -27.002     270.727     277.036
  O      -26.158     272.855     275.853
  H      -26.877     266.148     275.366
  H      -27.583     271.380     277.472
  H      -21.815     264.889     269.259
  H      -22.151     267.678     275.037
  H      -25.453     266.463     273.451
  H      -24.255     265.050     275.569
  H      -23.901     263.973     268.724
  H      -23.499     267.073     276.679
  H      -25.221     264.181     269.833
  H      -26.290     268.235     276.184
  H      -25.073     269.743     277.515
  H      -23.536     269.436     276.671
  P      -24.338     265.698     278.832
  C      -25.555     263.402     278.886
  O      -24.540     264.198     278.307
  O      -25.186     265.749     280.190
  O      -22.923     266.111     279.059
  H      -24.583     265.712     280.955
  H      -25.913     262.691     278.140
  H      -26.399     264.011     279.232
  H      -25.140     262.852     279.735
  H      -27.560     270.905     272.528
  H      -25.883     271.061     272.994
  H      -26.985     272.396     273.235

 3  4  5  6  7  8  9  10  11  12  23  26  30  31 0
 6-311+G(2d,p)
 ****
 33  35  36  37  38 0
 6-311+G(2d,p)
 ****
 1  2  13  14  15  16  17  18  19  20  21  22  24  25 0
 3-21G
 ****
 27  28  29  32  34  39  40  41  42  43  44  45  46  47  48  49 0
 3-21G
 ****


