%nproc=1
%NoSave
%Mem=1900MB
#P OB98/GEN NMR

erre ene a

0 1
  C      189.341    -124.840    -234.755
  O      188.738    -125.819    -235.569
  P      188.920    -125.892    -237.150
  C      186.642    -124.983    -238.055
  O      187.481    -126.109    -237.821
  C      185.190    -125.424    -238.300
  O      185.174    -126.366    -239.405
  C      184.608    -126.158    -237.080
  O      183.264    -125.805    -236.779
  C      184.892    -127.620    -237.395
  O      184.078    -128.526    -236.666
  C      184.732    -127.647    -238.913
  N      184.906    -132.557    -240.214
  C      183.843    -131.824    -239.723
  N      182.750    -132.534    -239.366
  N      183.874    -130.526    -239.565
  C      185.071    -129.972    -239.856
  C      186.195    -130.595    -240.349
  C      186.140    -132.023    -240.550
  O      187.096    -132.728    -240.873
  N      187.251    -129.728    -240.463
  C      186.779    -128.586    -240.003
  N      185.468    -128.694    -239.595
  O      190.062    -126.711    -237.655
  O      189.232    -124.350    -237.514
  H      183.146    -128.283    -236.837
  H      189.856    -124.350    -238.268
  H      184.853    -133.568    -240.237
  H      187.342    -127.664    -239.919
  H      183.688    -127.777    -239.203
  H      185.930    -127.821    -237.107
  H      182.752    -133.543    -239.338
  H      185.149    -125.878    -236.171
  H      182.065    -132.060    -238.783
  H      184.593    -124.556    -238.594
  H      187.037    -124.483    -238.944
  H      186.695    -124.282    -237.219
  P      182.518    -125.810    -235.366
  C      180.351    -126.987    -236.065
  O      180.938    -125.781    -235.620
  O      182.805    -124.362    -234.746
  O      182.976    -126.872    -234.424
  H      182.965    -124.443    -233.787
  H      179.353    -126.769    -236.460
  H      180.255    -127.680    -235.228
  H      180.954    -127.446    -236.857
  H      189.066    -125.006    -233.734
  H      189.010    -123.869    -235.060
  H      190.405    -124.901    -234.852

 3  4  5  6  7  8  9  10  11  12  23  26  30  31 0
 6-311+G(2d,p)
 ****
 33  35  36  37  38 0
 6-311+G(2d,p)
 ****
 1  2  13  14  15  16  17  18  19  20  21  22  24  25 0
 3-21G
 ****
 27  28  29  32  34  39  40  41  42  43  44  45  46  47  48  49 0
 3-21G
 ****


