%nproc=1
%NoSave
%Mem=1900MB
#P OB98/GEN NMR

erre ene a

0 1
  C      111.193     148.820     127.065
  O      109.924     148.669     126.416
  P      109.007     149.970     126.245
  C      106.876     149.449     127.643
  O      108.119     150.131     127.571
  C      106.317     149.514     129.067
  O      107.226     148.930     130.026
  C      106.053     150.932     129.556
  O      104.798     151.422     129.101
  C      106.009     150.720     131.061
  O      104.721     150.201     131.446
  C      107.099     149.661     131.270
  N      109.714     151.931     134.958
  C      108.413     151.466     134.946
  N      107.708     151.623     136.087
  N      107.855     150.900     133.909
  C      108.685     150.794     132.845
  C      109.990     151.216     132.734
  C      110.592     151.855     133.882
  O      111.734     152.298     133.948
  N      110.501     150.940     131.493
  C      109.516     150.334     130.858
  N      108.385     150.236     131.631
  O      107.930     149.505     125.154
  O      109.746     151.190     125.806
  H      104.052     150.797     131.057
  H      107.609     150.279     124.654
  H      110.093     152.364     135.783
  H      109.572     149.952     129.848
  H      106.836     148.941     132.053
  H      106.153     151.652     131.617
  H      108.091     152.004     136.937
  H      106.879     151.604     129.292
  H      106.762     151.259     136.108
  H      105.376     148.946     129.091
  H      106.995     148.405     127.340
  H      106.185     149.890     126.920
  P      104.804     152.567     127.979
  C      103.868     154.661     129.195
  O      105.009     153.949     128.759
  O      103.275     152.609     127.507
  O      105.728     152.316     126.836
  H      103.222     152.860     126.566
  H      104.193     155.479     129.840
  H      103.198     154.011     129.763
  H      103.337     155.081     128.336
  H      111.688     147.872     127.105
  H      111.044     149.187     128.059
  H      111.795     149.513     126.515

 3  4  5  6  7  8  9  10  11  12  23  26  30  31 0
 6-311+G(2d,p)
 ****
 33  35  36  37  38 0
 6-311+G(2d,p)
 ****
 1  2  13  14  15  16  17  18  19  20  21  22  24  25 0
 3-21G
 ****
 27  28  29  32  34  39  40  41  42  43  44  45  46  47  48  49 0
 3-21G
 ****


