%nproc=1
%NoSave
%Mem=1900MB
#P OB98/GEN NMR

erre ene a

0 1
  C     -102.820     140.966     220.489
  O     -102.516     139.658     220.044
  H     -103.827     140.965     220.915
  H     -102.793     141.672     219.656
  H     -102.114     141.276     221.264
  P     -101.119     139.407     219.305
  C     -100.112     139.191     221.678
  O      -99.975     139.747     220.375
  C      -99.013     138.165     221.942
  O      -97.720     138.725     221.640
  C      -98.933     137.695     223.391
  O      -99.982     136.794     223.682
  C      -97.535     137.102     223.415
  O      -97.519     135.797     222.815
  C      -96.760     138.116     222.537
  N      -96.053     139.133     223.308
  C      -94.767     138.790     223.745
  O      -94.300     137.682     223.487
  N      -94.059     139.712     224.477
  C      -94.564     140.880     224.714
  N      -93.809     141.748     225.440
  C      -95.901     141.293     224.242
  C      -96.586     140.376     223.564
  O     -100.943     140.079     217.978
  O     -101.031     137.814     219.175
  H      -96.598     135.474     222.890
  H     -101.373     137.522     218.309
  H      -96.278     142.283     224.454
  H      -97.579     140.599     223.180
  H      -96.026     137.595     221.908
  H      -97.148     136.993     224.429
  H      -98.954     138.556     224.069
  H      -99.171     137.316     221.263
  H      -92.889     141.427     225.724
  H     -101.094     138.710     221.721
  H      -94.027     142.727     225.544
  H     -100.082     139.979     222.438
  P     -100.422     136.476     225.190
  C     -102.817     137.255     224.670
  O     -101.673     137.437     225.491
  O      -99.325     136.539     226.198
  O     -101.111     135.037     225.085
  H     -100.421     134.330     225.014
  H     -103.580     137.946     224.963
  H     -103.180     136.255     224.781
  H     -102.553     137.427     223.647

 6  7  8  9  10  11  12  13  14  15  16  26  30  31  32  33  35 0
 6-311+G(2d,p)
 ****
 37  38 0
 6-311+G(2d,p)
 ****
 1  2  3  4  5  17  18  19  20  21  22  23  24  25 0
 3-21G
 ****
 27  28  29  34  36  39  40  41  42  43  44  45  46 0
 3-21G
 ****


