%nproc=1
%NoSave
%Mem=1900MB
#P OB98/GEN NMR

erre ene a

0 1
  C      246.205    1113.301     364.763
  O      246.274    1112.149     363.933
  H      247.189    1113.485     365.188
  H      245.491    1113.134     365.568
  H      245.906    1114.179     364.171
  P      244.972    1111.817     363.054
  C      244.710    1109.288     363.718
  O      245.068    1110.247     362.735
  C      245.718    1108.139     363.735
  O      245.706    1107.477     362.443
  C      247.159    1108.584     364.001
  O      247.799    1107.587     364.806
  C      247.799    1108.620     362.626
  O      249.208    1108.487     362.683
  C      247.047    1107.489     361.907
  N      247.051    1107.641     360.452
  C      248.082    1107.017     359.754
  O      248.945    1106.391     360.368
  N      248.140    1107.156     358.391
  C      247.280    1107.906     357.787
  N      247.404    1108.016     356.428
  C      246.195    1108.629     358.490
  C      246.125    1108.439     359.810
  O      245.336    1112.510     361.662
  O      243.685    1112.273     363.663
  H      249.414    1107.597     363.070
  H      246.262    1112.397     361.389
  H      245.501    1109.257     357.944
  H      245.372    1108.925     360.403
  H      247.507    1106.511     362.155
  H      247.566    1109.584     362.139
  H      247.227    1109.553     364.506
  H      245.394    1107.382     364.466
  H      248.164    1107.531     355.992
  H      243.717    1108.884     363.508
  H      246.819    1108.613     355.865
  H      244.686    1109.789     364.685
  P      248.315    1107.966     366.269
  C      250.296    1106.314     366.193
  O      249.135    1106.725     366.886
  O      247.297    1108.570     367.179
  O      249.504    1109.025     365.967
  H      249.451    1109.726     366.653
  H      250.743    1105.487     366.705
  H      250.992    1107.125     366.151
  H      250.032    1106.018     365.199

 6  7  8  9  10  11  12  13  14  15  16  26  30  31  32  33  35 0
 6-311+G(2d,p)
 ****
 37  38 0
 6-311+G(2d,p)
 ****
 1  2  3  4  5  17  18  19  20  21  22  23  24  25 0
 3-21G
 ****
 27  28  29  34  36  39  40  41  42  43  44  45  46 0
 3-21G
 ****


