%nproc=1
%NoSave
%Mem=1900MB
#P OB98/GEN NMR

erre ene a

0 1
  C      970.385      13.768      80.278
  O      970.457      13.258      78.964
  P      971.917      13.118      78.301
  C      971.333      14.520      76.189
  O      972.109      14.423      77.376
  C      971.565      15.878      75.526
  O      971.071      16.933      76.360
  C      973.033      16.203      75.288
  O      973.529      15.499      74.162
  C      972.980      17.712      75.093
  O      972.692      18.055      73.732
  C      971.820      18.127      76.025
  N      972.263      18.831      77.206
  C      972.414      20.217      77.070
  O      972.184      20.770      75.991
  N      972.847      20.934      78.158
  C      973.120      20.338      79.276
  N      973.535      21.094      80.315
  C      972.990      18.861      79.459
  C      972.564      18.189      78.384
  O      971.733      11.936      77.246
  O      973.020      12.843      79.279
  H      971.783      17.733      73.554
  H      972.573      11.475      77.082
  H      973.227      18.411      80.401
  H      972.441      17.114      78.425
  H      971.112      18.781      75.481
  H      973.939      18.193      75.351
  H      973.632      15.964      76.174
  H      971.009      15.886      74.571
  H      973.631      22.093      80.159
  H      970.271      14.427      76.428
  H      973.748      20.720      81.231
  H      971.614      13.699      75.516
  P      975.053      15.757      73.723
  C      974.490      16.336      71.297
  O      974.965      16.814      72.541
  O      975.403      14.392      72.941
  O      976.026      16.041      74.810
  H      976.364      14.392      72.721
  H      974.330      17.177      70.619
  H      973.527      15.822      71.435
  H      975.214      15.663      70.844
  H      969.362      13.806      80.590
  H      970.802      14.753      80.302
  H      970.936      13.131      80.938

 3  4  5  6  7  8  9  10  11  12  13  21  23  27  28  29  30  32 0
 6-311+G(2d,p)
 ****
 34  35 0
 6-311+G(2d,p)
 ****
 1  2  14  15  16  17  18  19  20  22  24  25  26 0
 3-21G
 ****
 31  33  36  37  38  39  40  41  42  43  44  45  46 0
 3-21G
 ****


