%nproc=1
%NoSave
%Mem=1900MB
#P OB98/GEN NMR

erre ene a

0 1
  C     -312.454    -843.752    -115.703
  O     -313.016    -844.585    -114.709
  H     -312.926    -843.980    -116.666
  H     -311.382    -843.938    -115.790
  H     -312.629    -842.696    -115.472
  P     -312.598    -844.359    -113.183
  C     -315.020    -844.538    -112.313
  O     -313.707    -845.089    -112.274
  C     -315.987    -845.473    -111.589
  O     -316.229    -846.654    -112.381
  C     -315.481    -845.968    -110.239
  O     -315.589    -844.954    -109.257
  C     -316.391    -847.170    -110.027
  O     -317.687    -846.765    -109.564
  C     -316.483    -847.743    -111.461
  N     -315.552    -848.862    -111.691
  C     -316.073    -850.126    -111.488
  O     -317.238    -850.343    -111.132
  N     -315.196    -851.167    -111.665
  C     -313.862    -851.051    -111.928
  O     -313.066    -851.982    -111.857
  C     -313.393    -849.680    -112.206
  C     -314.246    -848.666    -112.064
  O     -312.296    -842.948    -112.790
  O     -311.314    -845.302    -113.004
  H     -310.502    -844.758    -113.045
  H     -318.233    -847.570    -109.510
  H     -315.546    -852.097    -111.469
  H     -312.346    -849.540    -112.477
  H     -313.908    -847.651    -112.238
  H     -317.504    -848.099    -111.669
  H     -315.993    -847.872    -109.284
  H     -314.448    -846.314    -110.329
  H     -316.950    -844.939    -111.476
  H     -315.325    -844.431    -113.357
  H     -314.999    -843.549    -111.834
  P     -314.511    -844.825    -108.082
  C     -313.480    -842.582    -108.780
  O     -314.260    -843.262    -107.809
  O     -313.268    -845.627    -108.274
  O     -315.304    -845.296    -106.766
  H     -314.790    -846.010    -106.318
  H     -313.377    -841.555    -108.499
  H     -313.963    -842.645    -109.733
  H     -312.512    -843.034    -108.840

 6  7  8  9  10  11  12  13  14  15  16  27  31  32  33  34  35 0
 6-311+G(2d,p)
 ****
 36  37 0
 6-311+G(2d,p)
 ****
 1  2  3  4  5  17  18  19  20  21  22  23  24  25 0
 3-21G
 ****
 26  28  29  30  38  39  40  41  42  43  44  45 0
 3-21G
 ****


