%nproc=1
%NoSave
%Mem=1900MB
#P OB98/GEN NMR

erre ene a

0 1
  C       35.832     146.759      37.031
  O       36.549     146.657      38.262
  P       38.112     146.285      38.273
  C       39.617     144.232      38.556
  O       38.275     144.705      38.515
  C       39.753     142.742      38.216
  O       39.019     141.925      39.162
  C       39.270     142.353      36.818
  O       40.118     141.281      36.391
  C       37.860     141.855      37.086
  O       37.351     141.050      36.031
  C       38.058     141.141      38.430
  N       36.807     140.989      39.168
  C       36.568     139.744      39.755
  O       37.363     138.816      39.595
  N       35.407     139.561      40.471
  C       34.523     140.509      40.510
  N       33.383     140.260      41.211
  C       34.695     141.809      39.831
  C       35.853     141.980      39.194
  O       38.953     147.140      39.166
  O       38.558     146.469      36.741
  H       38.096     140.557      35.630
  H       39.497     146.735      36.710
  H       33.915     142.560      39.869
  H       36.079     142.902      38.669
  H       38.492     140.143      38.277
  H       37.185     142.712      37.206
  H       39.297     143.179      36.102
  H       40.813     142.477      38.330
  H       33.294     139.347      41.643
  H       40.017     144.411      39.562
  H       32.586     140.881      41.211
  H       40.224     144.827      37.860
  P       41.081     141.411      35.120
  C       40.919     140.858      32.624
  O       40.344     140.665      33.906
  O       42.491     140.973      35.353
  O       41.010     142.957      34.703
  H       41.770     143.171      34.129
  H       40.471     140.149      31.922
  H       42.005     140.691      32.654
  H       40.716     141.876      32.276
  H       34.812     147.013      37.232
  H       35.871     145.821      36.517
  H       36.276     147.519      36.422

 3  4  5  6  7  8  9  10  11  12  13  23  27  28  29  30  32 0
 6-311+G(2d,p)
 ****
 34  35 0
 6-311+G(2d,p)
 ****
 1  2  14  15  16  17  18  19  20  21  22  24  25  26 0
 3-21G
 ****
 31  33  36  37  38  39  40  41  42  43  44  45  46 0
 3-21G
 ****


