%nproc=1
%NoSave
%Mem=1900MB
#P OB98/GEN NMR

erre ene a

0 1
  C     -228.438     428.839     135.310
  O     -229.812     429.019     134.932
  P     -230.542     430.376     135.371
  C     -230.945     429.718     137.855
  O     -230.309     430.600     136.938
  C     -230.299     429.812     139.240
  O     -230.274     431.170     139.728
  C     -231.022     429.008     140.313
  O     -230.646     427.639     140.272
  C     -230.487     429.663     141.578
  O     -229.175     429.153     141.878
  C     -230.404     431.138     141.168
  N     -232.859     433.374     145.078
  C     -231.732     432.628     145.023
  N     -231.147     432.052     143.950
  C     -231.846     432.319     142.834
  C     -233.010     433.066     142.730
  C     -233.527     433.605     143.922
  N     -234.671     434.363     143.964
  N     -233.445     433.121     141.419
  C     -232.546     432.429     140.742
  N     -231.564     431.922     141.554
  O     -232.094     430.003     135.273
  O     -230.207     431.551     134.502
  H     -228.831     429.672     142.630
  H     -232.606     430.784     134.983
  H     -231.226     432.475     145.977
  H     -232.561     432.274     139.671
  H     -229.517     431.641     141.592
  H     -231.116     429.460     142.454
  H     -232.107     429.146     140.243
  H     -229.262     429.464     139.148
  H     -230.891     428.689     137.483
  H     -234.965     434.746     144.852
  H     -235.162     434.568     143.101
  H     -232.015     429.962     137.903
  P     -231.740     426.597     139.726
  C     -232.326     425.869     142.153
  O     -232.788     426.393     140.922
  O     -230.928     425.216     139.680
  O     -232.317     426.954     138.396
  H     -231.273     424.647     138.964
  H     -233.069     426.083     142.927
  H     -231.375     426.328     142.443
  H     -232.200     424.786     142.064
  H     -228.090     427.894     134.949
  H     -228.355     428.867     136.376
  H     -227.846     429.623     134.886

 3  4  5  6  7  8  9  10  11  12  22  25  29  30  31  32 0
 6-311+G(2d,p)
 ****
 33  36  37 0
 6-311+G(2d,p)
 ****
 1  2  13  14  15  16  17  18  19  20  21  23  24  26 0
 3-21G
 ****
 27  28  34  35  38  39  40  41  42  43  44  45  46  47  48 0
 3-21G
 ****


