%nproc=1
%NoSave
%Mem=1900MB
#P OB98/GEN NMR

erre ene a

0 1
  C      577.748     129.117     -56.034
  O      576.863     129.545     -57.047
  H      577.520     128.077     -55.786
  H      577.626     129.725     -55.135
  H      578.783     129.169     -56.384
  P      576.964     131.059     -57.564
  C      575.030     132.004     -56.138
  O      575.484     131.672     -57.444
  C      573.524     132.269     -56.153
  O      573.024     132.427     -54.814
  C      573.112     133.522     -56.920
  O      573.063     133.268     -58.318
  C      571.738     133.771     -56.325
  O      570.786     132.856     -56.898
  C      571.971     133.428     -54.839
  N      570.791     138.086     -53.196
  C      570.178     137.307     -54.163
  N      569.122     137.856     -54.797
  N      570.578     136.099     -54.477
  C      571.686     135.707     -53.811
  C      572.391     136.398     -52.849
  C      571.899     137.704     -52.459
  O      572.396     138.423     -51.591
  N      573.511     135.715     -52.464
  C      573.463     134.590     -53.153
  N      572.376     134.536     -53.996
  O      577.592     131.250     -58.909
  O      577.770     131.817     -56.405
  H      571.217     131.986     -56.946
  H      578.728     131.816     -56.588
  H      570.443     139.014     -53.003
  H      574.182     133.786     -53.080
  H      571.079     132.984     -54.375
  H      571.369     134.787     -56.513
  H      568.865     138.826     -54.706
  H      573.769     134.368     -56.684
  H      568.698     137.316     -55.545
  H      573.028     131.376     -56.573
  H      575.568     132.898     -55.817
  H      575.249     131.187     -55.436
  P      573.582     134.349     -59.388
  C      571.444     135.799     -59.205
  O      572.249     134.979     -60.033
  O      574.563     133.832     -60.373
  O      574.119     135.563     -58.499
  H      575.057     135.433     -58.200
  H      570.598     136.146     -59.761
  H      572.017     136.637     -58.868
  H      571.109     135.233     -58.361

 6  7  8  9  10  11  12  13  14  15  26  29  33  34 0
 6-311+G(2d,p)
 ****
 36  38  39  40  41 0
 6-311+G(2d,p)
 ****
 1  2  3  4  5  16  17  18  19  20  21  22  23  24  25 0
 3-21G
 ****
 27  28  30  31  32  35  37  42  43  44  45  46  47 0
 3-21G
 ****
 48  49 0
 3-21G
 ****


