%nproc=1
%NoSave
%Mem=1900MB
#P OB98/GEN NMR

erre ene a

0 1
  C     -272.468     -73.289     882.600
  O     -271.724     -73.116     883.784
  H     -272.225     -72.476     881.916
  H     -273.537     -73.249     882.824
  H     -272.227     -74.238     882.120
  P     -271.668     -74.316     884.849
  C     -269.147     -73.824     885.168
  O     -270.411     -74.018     885.804
  C     -268.040     -73.624     886.207
  O     -268.274     -72.371     886.915
  C     -267.971     -74.742     887.252
  O     -266.588     -74.865     887.654
  C     -268.795     -74.155     888.391
  O     -268.538     -74.818     889.605
  C     -268.370     -72.685     888.315
  N     -269.304     -71.796     889.018
  C     -269.406     -71.970     890.395
  O     -268.793     -72.854     891.019
  N     -270.291     -71.148     891.035
  C     -271.094     -70.225     890.440
  O     -271.892     -69.532     891.055
  C     -270.971     -70.111     888.980
  C     -270.099     -70.890     888.343
  O     -271.701     -75.694     884.274
  O     -272.909     -74.049     885.824
  H     -268.827     -75.756     889.549
  H     -273.255     -74.892     886.171
  H     -270.377     -71.257     892.034
  H     -271.603     -69.400     888.469
  H     -269.986     -70.830     887.262
  H     -267.375     -72.542     888.762
  H     -269.871     -74.253     888.178
  H     -268.347     -75.702     886.897
  H     -267.078     -73.513     885.668
  H     -269.229     -72.929     884.535
  H     -268.922     -74.687     884.534
  P     -265.688     -76.117     887.214
  C     -263.622     -74.678     887.805
  O     -264.230     -75.962     887.896
  O     -265.649     -76.361     885.738
  O     -266.319     -77.368     887.979
  H     -266.154     -78.186     887.463
  H     -262.668     -74.700     888.289
  H     -264.247     -73.953     888.282
  H     -263.493     -74.416     886.775

 6  7  8  9  10  11  12  13  14  15  16  26  31  32  33  34  35 0
 6-311+G(2d,p)
 ****
 36  37 0
 6-311+G(2d,p)
 ****
 1  2  3  4  5  17  18  19  20  21  22  23  24  25 0
 3-21G
 ****
 27  28  29  30  38  39  40  41  42  43  44  45 0
 3-21G
 ****


