%nproc=1
%NoSave
%Mem=1900MB
#P OB98/GEN NMR

erre ene a

0 1
  C     -596.057     661.234     369.918
  O     -594.766     660.630     369.997
  P     -593.880     660.482     368.670
  C     -593.087     662.768     367.754
  O     -592.808     661.672     368.616
  C     -591.865     663.075     366.877
  O     -592.205     663.973     365.795
  C     -590.753     663.777     367.636
  O     -590.066     663.020     368.610
  C     -589.926     664.388     366.519
  O     -589.018     663.436     365.960
  C     -591.023     664.747     365.477
  N     -591.325     666.184     365.465
  C     -590.649     666.936     364.505
  O     -589.817     666.456     363.733
  N     -590.945     668.271     364.482
  C     -591.800     668.926     365.323
  O     -592.005     670.124     365.271
  C     -592.461     668.083     366.328
  C     -592.195     666.771     366.357
  O     -594.635     660.247     367.411
  O     -592.956     659.207     369.006
  H     -588.510     663.894     365.267
  H     -592.901     658.661     368.193
  H     -590.472     668.831     363.789
  H     -593.143     668.564     367.020
  H     -592.681     666.130     367.094
  H     -590.709     664.459     364.478
  H     -589.333     665.237     366.859
  H     -591.211     664.621     368.187
  H     -591.515     662.140     366.435
  H     -593.357     663.648     368.341
  H     -593.967     662.524     367.142
  P     -589.646     663.598     370.049
  C     -591.863     662.955     371.242
  O     -590.463     662.792     371.175
  O     -589.569     665.083     370.197
  O     -588.167     662.985     370.214
  H     -587.630     663.619     370.729
  H     -592.248     662.352     372.064
  H     -592.333     662.612     370.311
  H     -592.120     664.012     371.419
  H     -596.503     661.250     370.890
  H     -596.675     660.669     369.251
  H     -595.961     662.235     369.553

 3  4  5  6  7  8  9  10  11  12  13  23  28  29  30  31  32 0
 6-311+G(2d,p)
 ****
 33  34 0
 6-311+G(2d,p)
 ****
 1  2  14  15  16  17  18  19  20  21  22  24  25  26  27 0
 3-21G
 ****
 35  36  37  38  39  40  41  42  43  44  45 0
 3-21G
 ****


