%nproc=1
%NoSave
%Mem=1900MB
#P OB98/GEN NMR

erre ene a

0 1
  C     -233.981    -596.544     374.285
  O     -234.918    -597.602     374.313
  H     -233.207    -596.780     373.548
  H     -233.510    -596.438     375.265
  H     -234.468    -595.607     374.001
  P     -236.231    -597.383     375.206
  C     -237.803    -596.290     373.409
  O     -237.022    -596.128     374.586
  C     -239.279    -596.441     373.778
  O     -239.497    -597.619     374.581
  C     -239.816    -595.312     374.643
  O     -239.961    -594.101     373.930
  C     -241.134    -595.921     375.100
  O     -242.132    -595.822     374.079
  C     -240.724    -597.396     375.327
  N     -240.561    -597.716     376.737
  C     -241.743    -597.939     377.455
  O     -242.836    -597.869     376.887
  N     -241.661    -598.208     378.799
  C     -240.498    -598.273     379.372
  N     -240.485    -598.530     380.709
  C     -239.229    -598.072     378.654
  C     -239.331    -597.796     377.351
  O     -235.634    -596.787     376.565
  O     -237.089    -598.591     375.383
  H     -242.529    -594.933     374.162
  H     -235.063    -596.012     376.434
  H     -238.283    -598.147     379.171
  H     -238.446    -597.633     376.752
  H     -241.476    -598.076     374.909
  H     -241.534    -595.416     375.983
  H     -239.183    -595.173     375.526
  H     -239.853    -596.545     372.846
  H     -241.379    -598.642     381.174
  H     -237.461    -597.148     372.825
  H     -239.645    -598.573     381.267
  H     -237.660    -595.395     372.793
  P     -240.077    -592.705     374.712
  C     -237.536    -592.317     374.850
  O     -238.736    -592.561     375.581
  O     -241.341    -592.514     375.484
  O     -239.852    -591.619     373.558
  H     -238.992    -591.682     373.103
  H     -236.714    -592.240     375.530
  H     -237.632    -591.403     374.301
  H     -237.362    -593.125     374.170

 6  7  8  9  10  11  12  13  14  15  16  26  30  31  32  33  35 0
 6-311+G(2d,p)
 ****
 37  38 0
 6-311+G(2d,p)
 ****
 1  2  3  4  5  17  18  19  20  21  22  23  24  25 0
 3-21G
 ****
 27  28  29  34  36  39  40  41  42  43  44  45  46 0
 3-21G
 ****


