%nproc=1
%NoSave
%Mem=1900MB
#P OB98/GEN NMR

erre ene a

0 1
  C      155.052     128.602      89.395
  O      154.981     128.439      87.974
  P      156.346     128.518      87.139
  C      156.875     125.975      87.032
  O      157.244     127.251      87.532
  C      157.814     125.558      85.896
  O      159.145     125.274      86.380
  C      157.362     124.303      85.160
  O      156.385     124.596      84.171
  C      158.660     123.872      84.495
  O      158.883     124.656      83.305
  C      159.703     124.213      85.565
  N      163.377     120.990      86.867
  C      163.391     122.041      85.972
  N      164.560     122.273      85.335
  N      162.354     122.797      85.723
  C      161.261     122.461      86.446
  C      161.122     121.443      87.360
  C      162.271     120.603      87.615
  O      162.314     119.650      88.386
  N      159.857     121.410      87.883
  C      159.235     122.418      87.304
  N      160.040     123.079      86.408
  O      157.122     129.732      87.840
  O      156.160     128.755      85.677
  H      158.010     124.781      82.886
  H      157.722     130.156      87.199
  H      164.202     120.437      87.016
  H      158.210     122.709      87.496
  H      160.639     124.584      85.134
  H      158.639     122.823      84.183
  H      165.409     121.763      85.515
  H      157.023     123.531      85.862
  H      164.599     123.061      84.699
  H      157.875     126.390      85.182
  H      155.843     125.990      86.673
  H      156.894     125.252      87.853
  P      155.214     123.526      83.936
  C      153.250     124.662      85.195
  O      154.239     123.654      85.198
  O      155.961     122.128      84.161
  O      154.565     123.596      82.597
  H      155.555     121.439      83.602
  H      152.583     124.500      86.044
  H      152.662     124.627      84.274
  H      153.717     125.646      85.298
  H      154.070     128.525      89.812
  H      155.463     129.563      89.624
  H      155.677     127.839      89.811

 3  4  5  6  7  8  9  10  11  12  23  26  30  31 0
 6-311+G(2d,p)
 ****
 33  35  36  37  38 0
 6-311+G(2d,p)
 ****
 1  2  13  14  15  16  17  18  19  20  21  22  24  25 0
 3-21G
 ****
 27  28  29  32  34  39  40  41  42  43  44  45  46  47  48  49 0
 3-21G
 ****


