%nproc=1
%NoSave
%Mem=1900MB
#P OB98/GEN NMR

erre ene a

0 1
  C      103.049    -543.862     932.153
  O      102.780    -542.496     932.398
  H      102.332    -544.481     932.696
  H      102.935    -544.056     931.084
  H      104.068    -544.119     932.453
  P      103.174    -541.916     933.842
  C      104.837    -540.314     932.656
  O      104.636    -541.271     933.689
  C      105.587    -539.094     933.199
  O      104.673    -538.340     934.046
  C      106.831    -539.431     934.027
  O      107.849    -538.465     933.726
  C      106.367    -539.227     935.456
  O      107.434    -538.921     936.350
  C      105.364    -538.092     935.286
  N      104.693    -536.237     939.976
  C      105.566    -535.914     938.998
  N      105.640    -536.427     937.751
  C      104.651    -537.309     937.535
  C      103.681    -537.732     938.438
  C      103.746    -537.166     939.723
  N      102.909    -537.530     940.752
  N      102.879    -538.693     937.855
  C      103.361    -538.866     936.647
  N      104.435    -538.051     936.406
  O      103.440    -543.257     934.689
  O      102.151    -541.045     934.490
  H      108.028    -539.698     936.408
  H      102.604    -543.570     935.076
  H      106.306    -535.159     939.242
  H      103.002    -539.581     935.918
  H      105.847    -537.105     935.225
  H      105.874    -540.140     935.812
  H      107.224    -540.440     933.850
  H      105.843    -538.446     932.351
  H      103.866    -539.998     932.273
  H      103.094    -537.150     941.666
  H      102.267    -538.302     940.605
  H      105.409    -540.776     931.845
  P      109.363    -538.973     933.678
  C      109.163    -539.427     931.120
  O      109.548    -539.921     932.400
  O      109.445    -539.997     934.911
  O      110.380    -537.882     933.808
  H      110.337    -539.981     935.303
  H      109.349    -540.175     930.378
  H      109.731    -538.549     930.891
  H      108.121    -539.185     931.130

 6  7  8  9  10  11  12  13  14  15  25  28  32  33  34  35 0
 6-311+G(2d,p)
 ****
 36  39  40 0
 6-311+G(2d,p)
 ****
 1  2  3  4  5  16  17  18  19  20  21  22  23  24 0
 3-21G
 ****
 26  27  29  30  31  37  38  41  42  43  44  45  46  47 0
 3-21G
 ****
 48 0
 3-21G
 ****


