%nproc=1
%NoSave
%Mem=1900MB
#P OB98/GEN NMR

erre ene a

0 1
  C      847.546    -474.827     493.861
  O      847.271    -474.490     495.201
  H      848.566    -474.508     493.624
  H      846.852    -474.309     493.197
  H      847.471    -475.905     493.697
  P      845.979    -475.126     495.905
  C      847.211    -477.181     496.876
  O      846.215    -476.710     495.982
  C      846.682    -478.340     497.726
  O      845.947    -477.798     498.859
  C      845.700    -479.220     496.942
  O      845.686    -480.562     497.414
  C      844.359    -478.569     497.236
  O      843.254    -479.457     497.061
  C      844.563    -478.126     498.681
  N      840.820    -476.327     501.656
  C      841.223    -477.625     501.459
  N      840.553    -478.580     502.157
  N      842.192    -477.964     500.647
  C      842.728    -476.927     499.972
  C      842.390    -475.591     500.055
  C      841.343    -475.216     500.987
  O      840.923    -474.088     501.179
  N      843.138    -474.826     499.200
  C      843.933    -475.689     498.597
  N      843.735    -476.977     499.049
  O      844.836    -474.994     494.790
  O      845.564    -474.485     497.198
  H      843.334    -480.167     497.728
  H      843.955    -475.019     495.203
  H      840.092    -476.112     502.322
  H      844.675    -475.440     497.844
  H      844.309    -478.931     499.386
  H      844.217    -477.733     496.549
  H      839.693    -478.374     502.637
  H      845.895    -479.214     495.866
  H      840.631    -479.538     501.797
  H      847.517    -478.914     498.140
  H      847.499    -476.332     497.504
  H      848.107    -477.484     496.323
  P      846.583    -481.656     496.647
  C      848.682    -481.865     498.243
  O      848.121    -481.445     497.014
  O      846.499    -481.203     495.112
  O      846.138    -483.069     496.845
  H      846.044    -481.885     494.578
  H      849.723    -481.618     498.263
  H      848.564    -482.924     498.346
  H      848.183    -481.371     499.050

 6  7  8  9  10  11  12  13  14  15  26  29  33  34 0
 6-311+G(2d,p)
 ****
 36  38  39  40  41 0
 6-311+G(2d,p)
 ****
 1  2  3  4  5  16  17  18  19  20  21  22  23  24  25 0
 3-21G
 ****
 27  28  30  31  32  35  37  42  43  44  45  46  47 0
 3-21G
 ****
 48  49 0
 3-21G
 ****


