%nproc=1
%NoSave
%Mem=1900MB
#P OB98/GEN NMR

erre ene a

0 1
  C     -164.000      -3.970      15.887
  O     -165.241      -4.637      15.794
  H     -163.745      -3.568      14.904
  H     -163.222      -4.676      16.188
  H     -164.047      -3.143      16.600
  P     -165.991      -5.069      17.142
  C     -167.501      -3.040      17.638
  O     -167.428      -4.356      17.111
  C     -168.794      -2.347      17.199
  O     -168.965      -1.131      17.982
  C     -168.814      -1.945      15.717
  O     -170.176      -2.009      15.275
  C     -168.348      -0.504      15.782
  O     -168.662       0.195      14.599
  C     -169.056      -0.032      17.055
  N     -168.475       1.195      17.595
  C     -168.523       2.317      16.778
  O     -168.993       2.303      15.640
  N     -167.970       3.458      17.289
  C     -167.331       3.565      18.489
  O     -166.824       4.606      18.885
  C     -167.272       2.334      19.294
  C     -167.840       1.223      18.820
  O     -165.222      -4.868      18.404
  O     -166.363      -6.609      16.910
  H     -169.585       0.007      14.327
  H     -166.374      -7.083      17.763
  H     -168.006       4.283      16.712
  H     -166.764       2.383      20.247
  H     -167.814       0.301      19.389
  H     -170.120       0.156      16.859
  H     -167.262      -0.456      15.910
  H     -168.179      -2.575      15.092
  H     -169.641      -3.001      17.442
  H     -166.636      -2.479      17.268
  H     -167.455      -3.081      18.731
  P     -170.586      -2.657      13.866
  C     -170.066      -5.115      14.435
  O     -171.078      -4.164      14.115
  O     -169.546      -2.522      12.802
  O     -171.929      -1.894      13.442
  H     -172.007      -1.881      12.470
  H     -170.513      -6.077      14.578
  H     -169.567      -4.817      15.333
  H     -169.358      -5.166      13.634

 6  7  8  9  10  11  12  13  14  15  16  26  31  32  33  34  35 0
 6-311+G(2d,p)
 ****
 36  37 0
 6-311+G(2d,p)
 ****
 1  2  3  4  5  17  18  19  20  21  22  23  24  25 0
 3-21G
 ****
 27  28  29  30  38  39  40  41  42  43  44  45 0
 3-21G
 ****


