%nproc=1
%NoSave
%Mem=1900MB
#P OB98/GEN NMR

erre ene a

0 1
  C      122.028     393.031    1113.412
  O      122.664     392.524    1114.573
  P      124.189     392.022    1114.438
  C      123.776     389.428    1114.219
  O      124.215     390.524    1115.011
  C      124.128     388.110    1114.917
  O      125.566     387.947    1114.950
  C      123.661     388.016    1116.358
  O      122.279     387.743    1116.458
  C      124.569     386.893    1116.882
  O      124.053     385.617    1116.487
  C      125.890     387.183    1116.137
  N      126.874     387.873    1116.960
  C      127.309     387.201    1118.097
  O      126.899     386.082    1118.418
  N      128.228     387.867    1118.875
  C      128.672     389.127    1118.655
  O      129.470     389.690    1119.416
  C      128.170     389.808    1117.471
  C      127.296     389.161    1116.672
  O      124.890     392.912    1115.570
  O      124.740     392.211    1113.070
  H      124.260     393.144    1116.284
  H      124.701     384.949    1116.795
  H      128.564     387.394    1119.696
  H      128.507     390.821    1117.264
  H      126.892     389.649    1115.795
  H      126.328     386.241    1115.777
  H      124.654     386.903    1117.973
  H      123.894     388.944    1116.886
  H      123.703     387.290    1114.314
  H      124.281     389.469    1113.244
  H      122.697     389.515    1114.059
  P      121.326     388.989    1116.839
  C      121.929     389.137    1119.386
  O      120.970     388.815    1118.390
  O      119.981     388.594    1116.078
  O      121.897     390.320    1116.460
  H      119.760     387.652    1116.159
  H      121.418     389.300    1120.333
  H      122.480     390.049    1119.116
  H      122.634     388.305    1119.500
  H      121.027     393.323    1113.652
  H      122.007     392.273    1112.657
  H      122.570     393.879    1113.050

 3  4  5  6  7  8  9  10  11  12  13  24  28  29  30  31  32 0
 6-311+G(2d,p)
 ****
 33  34 0
 6-311+G(2d,p)
 ****
 1  2  14  15  16  17  18  19  20  21  22  23  25  26  27 0
 3-21G
 ****
 35  36  37  38  39  40  41  42  43  44  45 0
 3-21G
 ****


