%nproc=1
%NoSave
%Mem=1900MB
#P OB98/GEN NMR

erre ene a

0 1
  C      171.026     -84.878     325.752
  O      171.947     -85.769     325.158
  H      170.044     -85.359     325.788
  H      170.950     -83.961     325.160
  H      171.340     -84.637     326.770
  P      173.430     -85.206     324.907
  C      173.640     -84.833     322.331
  O      173.270     -84.289     323.593
  C      172.599     -85.849     321.875
  O      171.262     -85.385     322.174
  C      172.601     -86.129     320.370
  O      173.653     -86.988     319.963
  C      171.243     -86.788     320.231
  O      171.299     -88.130     320.740
  C      170.380     -85.877     321.129
  N      169.766     -84.763     320.405
  C      168.730     -85.085     319.514
  O      168.364     -86.251     319.369
  N      168.145     -84.076     318.787
  C      168.543     -82.850     318.943
  N      167.931     -81.899     318.190
  C      169.625     -82.467     319.870
  C      170.183     -83.459     320.560
  O      174.222     -86.481     324.354
  O      174.079     -84.529     326.069
  H      171.946     -88.612     320.195
  H      175.114     -86.207     324.026
  H      169.934     -81.431     319.952
  H      170.983     -83.250     321.260
  H      169.584     -86.454     321.622
  H      170.902     -86.856     319.197
  H      172.608     -85.198     319.794
  H      172.760     -86.770     322.452
  H      167.241     -82.197     317.519
  H      174.617     -85.311     322.438
  H      168.274     -80.946     318.126
  H      173.712     -84.030     321.589
  P      173.952     -87.085     318.390
  C      173.483     -89.340     317.173
  O      172.944     -88.176     317.788
  O      175.371     -87.823     318.331
  O      173.970     -85.767     317.668
  H      175.903     -87.491     317.579
  H      172.685     -89.962     316.826
  H      174.072     -89.879     317.885
  H      174.098     -89.054     316.345

 6  7  8  9  10  11  12  13  14  15  16  26  30  31  32  33  35 0
 6-311+G(2d,p)
 ****
 37  38 0
 6-311+G(2d,p)
 ****
 1  2  3  4  5  17  18  19  20  21  22  23  24  25 0
 3-21G
 ****
 27  28  29  34  36  39  40  41  42  43  44  45  46 0
 3-21G
 ****


