%nproc=1
%NoSave
%Mem=1900MB
#P OB98/GEN NMR

erre ene a

0 1
  C      -62.756       3.648      15.169
  O      -61.605       2.930      14.753
  P      -60.253       2.958      15.617
  C      -58.393       4.494      14.729
  O      -59.649       4.426      15.394
  C      -58.547       4.059      13.273
  O      -59.647       4.796      12.689
  C      -57.351       4.338      12.363
  O      -56.333       3.347      12.404
  C      -58.022       4.310      10.995
  O      -58.233       2.946      10.585
  C      -59.364       4.991      11.280
  N      -59.591       8.493       7.556
  C      -59.677       7.145       7.536
  N      -59.587       6.280       8.570
  C      -59.433       6.943       9.727
  C      -59.336       8.314       9.907
  C      -59.423       9.107       8.750
  N      -59.358      10.484       8.778
  N      -59.163       8.619      11.245
  C      -59.172       7.453      11.856
  N      -59.341       6.411      10.985
  O      -59.326       1.825      15.350
  O      -60.757       3.003      17.134
  H      -58.711       2.977       9.733
  H      -60.027       2.757      17.736
  H      -59.833       6.696       6.557
  H      -59.057       7.315      12.922
  H      -60.192       4.542      10.718
  H      -57.423       4.787      10.216
  H      -56.937       5.339      12.541
  H      -58.808       2.993      13.256
  H      -57.698       3.815      15.236
  H      -59.559      10.974       7.921
  H      -59.396      10.945       9.678
  H      -57.994       5.510      14.798
  P      -54.947       3.689      11.661
  C      -54.467       2.504       9.376
  O      -55.225       3.449      10.100
  O      -53.758       2.987      12.216
  O      -54.866       5.284      11.781
  H      -55.535       5.772      11.276
  H      -54.913       2.378       8.386
  H      -54.463       1.536       9.882
  H      -53.439       2.861       9.254
  H      -63.544       3.500      14.461
  H      -62.523       4.691      15.231
  H      -63.069       3.295      16.130

 3  4  5  6  7  8  9  10  11  12  22  25  29  30  31  32 0
 6-311+G(2d,p)
 ****
 33  36  37 0
 6-311+G(2d,p)
 ****
 1  2  13  14  15  16  17  18  19  20  21  23  24  26 0
 3-21G
 ****
 27  28  34  35  38  39  40  41  42  43  44  45  46  47  48 0
 3-21G
 ****


