%nproc=1
%NoSave
%Mem=1900MB
#P OB98/GEN NMR

erre ene a

0 1
  C      110.655    -327.211     326.935
  O      110.909    -328.458     327.574
  P      112.310    -328.644     328.331
  C      113.789    -329.371     326.309
  O      113.140    -329.747     327.515
  C      114.262    -330.614     325.545
  O      114.812    -330.185     324.264
  C      115.355    -331.432     326.258
  O      115.155    -332.803     325.888
  C      116.637    -330.915     325.623
  O      117.721    -331.834     325.753
  C      116.164    -330.680     324.189
  N      120.565    -330.004     321.770
  C      120.086    -331.118     322.443
  N      120.876    -332.221     322.412
  N      118.944    -331.144     323.082
  C      118.264    -329.973     323.012
  C      118.651    -328.791     322.413
  C      119.895    -328.784     321.672
  O      120.315    -327.853     320.993
  N      117.733    -327.800     322.624
  C      116.763    -328.390     323.283
  N      117.016    -329.720     323.501
  O      111.892    -329.396     329.678
  O      113.081    -327.381     328.593
  H      117.424    -332.701     325.396
  H      111.747    -328.759     330.407
  H      121.443    -330.050     321.274
  H      115.848    -327.917     323.627
  H      116.164    -331.611     323.595
  H      116.932    -329.971     326.097
  H      121.744    -332.277     321.908
  H      115.344    -331.318     327.337
  H      120.532    -333.060     322.875
  H      113.396    -331.242     325.331
  H      114.666    -328.766     326.556
  H      113.111    -328.770     325.692
  P      114.595    -333.805     327.012
  C      116.875    -333.567     328.217
  O      115.849    -334.435     327.769
  O      114.036    -335.036     326.138
  O      113.513    -333.233     327.881
  H      113.267    -335.438     326.584
  H      117.424    -334.053     329.024
  H      116.470    -332.619     328.591
  H      117.571    -333.362     327.390
  H      109.689    -327.236     326.476
  H      111.400    -327.035     326.188
  H      110.685    -326.426     327.661

 3  4  5  6  7  8  9  10  11  12  23  26  30  31 0
 6-311+G(2d,p)
 ****
 33  35  36  37  38 0
 6-311+G(2d,p)
 ****
 1  2  13  14  15  16  17  18  19  20  21  22  24  25 0
 3-21G
 ****
 27  28  29  32  34  39  40  41  42  43  44  45  46  47  48  49 0
 3-21G
 ****


