%nproc=1
%NoSave
%Mem=1900MB
#P OB98/GEN NMR

erre ene a

0 1
  C      282.188     141.238    -517.301
  O      282.398     140.146    -516.393
  P      281.113     139.638    -515.564
  C      282.440     139.930    -513.354
  O      281.612     139.083    -514.141
  C      283.672     139.182    -512.812
  O      283.275     138.091    -511.945
  C      284.565     138.600    -513.916
  O      285.913     138.671    -513.450
  C      284.129     137.143    -513.961
  O      285.134     136.330    -514.560
  C      283.870     136.880    -512.457
  N      283.023     135.714    -512.233
  C      283.662     134.488    -512.017
  O      284.897     134.407    -512.100
  N      282.904     133.373    -511.757
  C      281.608     133.461    -511.761
  N      280.912     132.332    -511.498
  C      280.889     134.727    -512.038
  C      281.638     135.790    -512.249
  O      280.659     138.318    -516.351
  O      280.009     140.646    -515.508
  H      285.932     136.346    -513.981
  H      279.706     138.350    -516.540
  H      279.799     134.750    -512.050
  H      281.203     136.759    -512.466
  H      284.816     136.715    -511.930
  H      283.202     137.033    -514.538
  H      284.466     139.120    -514.871
  H      284.248     139.892    -512.213
  H      281.433     131.482    -511.309
  H      281.859     140.323    -512.516
  H      279.901     132.279    -511.482
  H      282.734     140.791    -513.954
  P      286.726     140.023    -513.689
  C      287.795     139.189    -515.876
  O      288.027     139.588    -514.525
  O      287.382     140.261    -512.230
  O      285.989     141.233    -514.163
  H      287.851     141.115    -512.219
  H      288.760     139.037    -516.364
  H      287.248     139.967    -516.412
  H      287.240     138.241    -515.897
  H      283.110     141.480    -517.787
  H      281.836     142.091    -516.758
  H      281.461     140.957    -518.034

 3  4  5  6  7  8  9  10  11  12  13  21  23  27  28  29  30  32 0
 6-311+G(2d,p)
 ****
 34  35 0
 6-311+G(2d,p)
 ****
 1  2  14  15  16  17  18  19  20  22  24  25  26 0
 3-21G
 ****
 31  33  36  37  38  39  40  41  42  43  44  45  46 0
 3-21G
 ****


