%nproc=1
%NoSave
%Mem=1900MB
#P OB98/GEN NMR

erre ene a

0 1
  C       24.924     -22.093     -31.214
  O       25.490     -21.332     -32.261
  H       24.305     -21.438     -30.596
  H       25.723     -22.506     -30.593
  H       24.303     -22.901     -31.608
  P       26.105     -22.136     -33.504
  C       27.855     -20.312     -34.092
  O       26.708     -21.037     -34.509
  C       27.815     -18.887     -34.643
  O       26.964     -18.077     -33.776
  C       29.190     -18.203     -34.719
  O       29.233     -17.379     -35.891
  C       29.181     -17.296     -33.503
  O       30.083     -16.203     -33.635
  C       27.713     -16.888     -33.464
  N       28.545     -13.003     -30.399
  C       28.896     -13.195     -31.720
  N       29.638     -12.231     -32.305
  N       28.552     -14.249     -32.411
  C       27.795     -15.128     -31.712
  C       27.385     -15.057     -30.404
  C       27.785     -13.892     -29.642
  O       27.524     -13.676     -28.464
  N       26.682     -16.181     -30.048
  C       26.687     -16.936     -31.133
  N       27.352     -16.340     -32.168
  O       24.796     -22.661     -34.262
  O       27.028     -23.252     -33.150
  H       30.139     -15.747     -32.771
  H       24.587     -23.569     -33.972
  H       28.849     -12.181     -29.907
  H       26.247     -17.919     -31.214
  H       27.469     -16.122     -34.212
  H       29.457     -17.867     -32.607
  H       29.914     -11.377     -31.847
  H       30.033     -18.900     -34.727
  H       29.868     -12.340     -33.286
  H       27.337     -18.906     -35.630
  H       28.753     -20.813     -34.466
  H       27.893     -20.296     -32.998
  P       30.668     -16.955     -36.463
  C       30.325     -14.426     -36.973
  O       30.472     -15.740     -37.491
  O       31.055     -18.183     -37.415
  O       31.700     -16.737     -35.406
  H       32.018     -18.331     -37.388
  H       30.205     -13.735     -37.781
  H       31.196     -14.166     -36.408
  H       29.464     -14.387     -36.339

 6  7  8  9  10  11  12  13  14  15  26  29  33  34 0
 6-311+G(2d,p)
 ****
 36  38  39  40  41 0
 6-311+G(2d,p)
 ****
 1  2  3  4  5  16  17  18  19  20  21  22  23  24  25 0
 3-21G
 ****
 27  28  30  31  32  35  37  42  43  44  45  46  47 0
 3-21G
 ****
 48  49 0
 3-21G
 ****


