%nproc=1
%NoSave
%Mem=1900MB
#P OB98/GEN NMR

erre ene a

0 1
  C        8.547     -37.715     -19.301
  O        8.104     -38.674     -20.242
  H        9.618     -37.548     -19.447
  H        8.390     -38.070     -18.278
  H        8.019     -36.769     -19.447
  P        6.596     -39.206     -20.129
  C        5.726     -38.944     -22.551
  O        5.771     -38.398     -21.237
  C        6.669     -38.175     -23.471
  O        7.975     -38.068     -22.870
  C        6.885     -38.857     -24.814
  O        5.767     -38.673     -25.659
  C        8.167     -38.190     -25.270
  O        7.913     -36.893     -25.822
  C        8.949     -38.082     -23.940
  N        9.910     -39.164     -23.760
  C       11.220     -38.895     -24.172
  O       11.512     -37.799     -24.646
  N       12.159     -39.889     -24.051
  C       11.828     -41.038     -23.552
  N       12.805     -41.979     -23.461
  C       10.463     -41.357     -23.094
  C        9.563     -40.385     -23.231
  O        5.976     -39.193     -18.766
  O        6.672     -40.684     -20.740
  H        8.791     -36.510     -26.019
  H        6.872     -41.333     -20.040
  H       10.233     -42.326     -22.679
  H        8.535     -40.536     -22.916
  H        9.490     -37.129     -23.888
  H        8.676     -38.780     -26.031
  H        7.089     -39.922     -24.668
  H        6.274     -37.160     -23.601
  H       13.727     -41.719     -23.797
  H        4.694     -38.852     -22.905
  H       12.687     -42.872     -23.011
  H        5.994     -40.006     -22.537
  P        4.884     -39.927     -26.129
  C        2.705     -38.784     -25.357
  O        3.577     -39.900     -25.196
  O        5.607     -41.230     -26.182
  O        4.317     -39.456     -27.551
  H        5.018     -39.485     -28.246
  H        1.877     -38.879     -24.686
  H        2.346     -38.754     -26.365
  H        3.237     -37.881     -25.141

 6  7  8  9  10  11  12  13  14  15  16  26  30  31  32  33  35 0
 6-311+G(2d,p)
 ****
 37  38 0
 6-311+G(2d,p)
 ****
 1  2  3  4  5  17  18  19  20  21  22  23  24  25 0
 3-21G
 ****
 27  28  29  34  36  39  40  41  42  43  44  45  46 0
 3-21G
 ****


