%nproc=1
%NoSave
%Mem=1900MB
#P OB98/GEN NMR

erre ene a

0 1
  C     2086.533    1770.311    -890.310
  O     2086.779    1771.373    -891.180
  P     2087.336    1771.043    -892.620
  C     2085.564    1772.902    -893.200
  O     2086.753    1772.260    -893.560
  C     2085.112    1773.838    -894.300
  O     2085.148    1773.115    -895.580
  C     2083.726    1774.394    -894.140
  O     2083.659    1775.487    -893.230
  C     2083.356    1774.779    -895.580
  O     2083.846    1776.135    -895.910
  C     2084.162    1773.763    -896.410
  N     2083.293    1772.763    -897.080
  C     2082.750    1773.155    -898.310
  O     2083.021    1774.260    -898.790
  N     2081.925    1772.332    -898.950
  C     2081.602    1771.179    -898.420
  N     2080.747    1770.354    -899.080
  C     2082.125    1770.749    -897.090
  C     2082.947    1771.600    -896.490
  O     2086.408    1769.786    -893.080
  O     2088.795    1770.777    -892.730
  H     2083.315    1776.734    -895.380
  H     2086.855    1769.229    -893.720
  H     2081.836    1769.755    -896.670
  H     2083.384    1771.358    -895.540
  H     2084.724    1774.274    -897.210
  H     2082.282    1774.803    -895.780
  H     2082.995    1773.571    -893.820
  H     2085.843    1774.638    -894.430
  H     2080.396    1770.685    -900.000
  H     2085.800    1773.588    -892.320
  H     2080.472    1769.382    -898.780
  H     2084.784    1772.223    -892.920
  P     2082.267    1775.743    -892.460
  C     2083.591    1776.859    -890.620
  O     2082.592    1777.000    -891.500
  O     2082.182    1774.555    -891.400
  O     2081.004    1775.813    -893.300
  H     2081.339    1774.501    -890.920
  H     2083.888    1777.780    -890.130
  H     2084.526    1776.477    -891.110
  H     2083.385    1776.168    -889.770
  H     2086.162    1770.690    -889.381
  H     2087.442    1769.773    -890.138
  H     2085.807    1769.656    -890.744

 3  4  5  6  7  8  9  10  11  12  13  21  23  27  28  29  30  32 0
 6-311+G(2d,p)
 ****
 34  35 0
 6-311+G(2d,p)
 ****
 1  2  14  15  16  17  18  19  20  22  24  25  26 0
 3-21G
 ****
 31  33  36  37  38  39  40  41  42  43  44  45  46 0
 3-21G
 ****


