%nproc=1
%NoSave
%Mem=1900MB
#P OB98/GEN NMR

erre ene a

0 1
  C      419.765    -122.207     130.545
  O      419.647    -122.841     129.285
  H      420.470    -122.772     131.159
  H      418.793    -122.185     131.045
  H      420.142    -121.189     130.422
  P      418.664    -122.149     128.225
  C      420.491    -122.048     126.368
  O      419.226    -122.544     126.776
  C      420.919    -122.697     125.047
  O      421.348    -124.067     125.319
  C      419.796    -122.782     124.002
  O      420.401    -122.748     122.700
  C      419.233    -124.171     124.264
  O      418.402    -124.590     123.206
  C      420.537    -124.929     124.490
  N      420.043    -129.962     123.723
  C      420.276    -128.942     122.870
  N      420.409    -127.630     123.150
  C      420.295    -127.413     124.472
  C      420.065    -128.351     125.463
  C      419.932    -129.689     125.043
  N      419.683    -130.725     125.906
  N      420.005    -127.746     126.707
  C      420.198    -126.464     126.466
  N      420.370    -126.213     125.131
  O      419.013    -120.593     128.357
  O      417.210    -122.413     128.431
  H      418.117    -125.520     123.335
  H      418.392    -120.164     128.975
  H      420.370    -129.216     121.823
  H      420.216    -125.676     127.215
  H      421.080    -125.097     123.553
  H      418.619    -124.177     125.168
  H      419.063    -121.977     124.084
  H      421.795    -122.166     124.654
  H      421.222    -122.276     127.150
  H      420.431    -120.961     126.236
  H      419.583    -131.652     125.526
  H      419.579    -130.532     126.895
  P      420.305    -121.402     121.826
  C      422.318    -122.365     120.461
  O      421.111    -121.617     120.458
  O      421.278    -120.415     122.631
  O      418.939    -120.812     121.696
  H      420.990    -119.491     122.496
  H      422.715    -122.405     119.468
  H      422.121    -123.358     120.807
  H      423.027    -121.895     121.110

 6  7  8  9  10  11  12  13  14  15  25  28  32  33  34  35 0
 6-311+G(2d,p)
 ****
 36  37  40 0
 6-311+G(2d,p)
 ****
 1  2  3  4  5  16  17  18  19  20  21  22  23  24 0
 3-21G
 ****
 26  27  29  30  31  38  39 41  42  43  44  45  46  47  48 0
 3-21G
 ****


