%nproc=1
%NoSave
%Mem=1900MB
#P OB98/GEN NMR

erre ene a

0 1
  C       23.443     209.196    -257.672
  O       24.088     208.259    -256.833
  H       24.165     209.961    -257.964
  H       22.623     209.679    -257.135
  H       23.061     208.713    -258.574
  P       23.307     206.921    -256.424
  C       24.189     205.595    -258.452
  O       23.045     206.105    -257.778
  C       23.786     204.422    -259.342
  O       23.333     203.316    -258.533
  C       22.642     204.732    -260.298
  O       23.090     205.511    -261.390
  C       22.187     203.325    -260.659
  O       23.042     202.753    -261.659
  C       22.350     202.592    -259.306
  N       21.095     202.462    -258.567
  C       20.213     201.482    -259.010
  O       20.435     200.777    -259.992
  N       19.052     201.352    -258.294
  C       18.664     202.146    -257.253
  O       17.587     202.022    -256.678
  C       19.618     203.187    -256.851
  C       20.770     203.295    -257.513
  O       22.104     207.110    -255.561
  O       24.427     206.044    -255.688
  H       23.960     202.894    -261.356
  H       24.318     206.114    -254.722
  H       18.398     200.655    -258.609
  H       19.339     203.839    -256.033
  H       21.487     204.061    -257.233
  H       22.756     201.586    -259.466
  H       21.173     203.300    -261.061
  H       21.827     205.237    -259.766
  H       24.676     204.091    -259.894
  H       24.914     205.256    -257.705
  H       24.636     206.397    -259.046
  P       22.066     206.019    -262.509
  C       20.830     207.500    -260.824
  O       20.705     206.441    -261.764
  O       21.880     205.098    -263.667
  O       22.670     207.423    -262.979
  H       23.077     207.330    -263.862
  H       19.875     207.703    -260.387
  H       21.189     208.377    -261.321
  H       21.520     207.217    -260.057

 6  7  8  9  10  11  12  13  14  15  16  26  31  32  33  34  35 0
 6-311+G(2d,p)
 ****
 36  37 0
 6-311+G(2d,p)
 ****
 1  2  3  4  5  17  18  19  20  21  22  23  24  25 0
 3-21G
 ****
 27  28  29  30  38  39  40  41  42  43  44  45 0
 3-21G
 ****


