%nproc=1
%NoSave
%Mem=1900MB
#P OB98/GEN NMR

erre ene a

0 1
  C       68.163      61.036     137.712
  O       67.146      61.138     136.729
  P       65.716      61.713     137.184
  C       64.771      59.363     137.796
  O       64.659      60.523     136.987
  C       64.333      58.121     137.017
  O       62.928      58.260     136.678
  C       65.093      57.881     135.708
  O       65.160      56.462     135.517
  C       64.179      58.492     134.663
  O       64.419      57.984     133.355
  C       62.813      58.141     135.243
  N       60.086      59.494     131.204
  C       61.145      58.611     131.301
  N       61.481      57.952     130.171
  N       61.810      58.389     132.405
  C       61.348      59.108     133.456
  C       60.338      60.040     133.477
  C       59.586      60.246     132.260
  O       58.587      60.954     132.151
  N       60.220      60.627     134.709
  C       61.103      59.991     135.452
  N       61.779      59.030     134.750
  O       65.356      62.739     136.012
  O       65.675      62.348     138.538
  H       65.375      58.075     133.170
  H       65.632      63.647     136.242
  H       59.598      59.608     130.331
  H       61.293      60.178     136.496
  H       62.507      57.113     135.008
  H       64.327      59.578     134.633
  H       60.992      58.050     129.294
  H       66.096      58.315     135.699
  H       62.232      57.273     130.222
  H       64.424      57.251     137.678
  H       64.119      59.477     138.667
  H       65.801      59.259     138.147
  P       66.543      55.725     135.849
  C       67.386      56.597     133.560
  O       67.323      55.515     134.468
  O       66.072      54.240     136.233
  O       67.329      56.336     136.962
  H       66.678      53.867     136.899
  H       68.243      56.453     132.898
  H       67.500      57.553     134.079
  H       66.474      56.619     132.957
  H       69.052      60.640     137.266
  H       67.837      60.385     138.496
  H       68.368      62.006     138.115

 3  4  5  6  7  8  9  10  11  12  23  26  30  31 0
 6-311+G(2d,p)
 ****
 33  35  36  37  38 0
 6-311+G(2d,p)
 ****
 1  2  13  14  15  16  17  18  19  20  21  22  24  25 0
 3-21G
 ****
 27  28  29  32  34  39  40  41  42  43  44  45  46  47  48  49 0
 3-21G
 ****


