%nproc=1
%NoSave
%Mem=1900MB
#P OB98/GEN NMR

erre ene a

0 1
  C     -353.823    -626.230     118.664
  O     -354.967    -627.039     118.468
  H     -353.795    -625.908     119.712
  H     -353.865    -625.340     118.028
  H     -352.913    -626.797     118.450
  P     -355.280    -627.574     116.993
  C     -356.912    -625.592     116.654
  O     -355.788    -626.307     116.149
  C     -358.131    -625.802     115.751
  O     -359.284    -625.146     116.312
  C     -357.967    -625.232     114.346
  O     -357.127    -626.068     113.565
  C     -359.422    -625.179     113.900
  O     -359.893    -626.481     113.509
  C     -360.121    -624.717     115.206
  N     -360.356    -623.275     115.261
  C     -361.696    -622.874     115.199
  O     -362.595    -623.710     115.080
  N     -361.975    -621.525     115.248
  C     -361.018    -620.665     115.387
  N     -361.363    -619.350     115.432
  C     -359.596    -621.053     115.503
  C     -359.340    -622.357     115.416
  O     -356.169    -628.776     116.897
  O     -353.834    -627.867     116.369
  H     -360.792    -626.340     113.148
  H     -353.587    -628.804     116.497
  H     -358.826    -620.300     115.630
  H     -358.320    -622.727     115.484
  H     -361.088    -625.224     115.325
  H     -359.570    -624.509     113.043
  H     -357.580    -624.212     114.387
  H     -358.343    -626.878     115.722
  H     -362.354    -619.135     115.374
  H     -356.635    -624.531     116.675
  H     -360.725    -618.613     115.709
  H     -357.142    -625.908     117.678
  P     -355.815    -625.494     112.842
  C     -357.065    -625.462     110.590
  O     -356.343    -624.696     111.551
  O     -354.749    -626.497     112.570
  O     -355.342    -624.305     113.807
  H     -354.881    -624.668     114.605
  H     -357.364    -624.829     109.781
  H     -357.933    -625.886     111.051
  H     -356.440    -626.247     110.217

 6  7  8  9  10  11  12  13  14  15  16  26  30  31  32  33  35 0
 6-311+G(2d,p)
 ****
 37  38 0
 6-311+G(2d,p)
 ****
 1  2  3  4  5  17  18  19  20  21  22  23  24  25 0
 3-21G
 ****
 27  28  29  34  36  39  40  41  42  43  44  45  46 0
 3-21G
 ****


