%nproc=1
%NoSave
%Mem=1900MB
#P OB98/GEN NMR

erre ene a

0 1
  C     -676.477     218.433    -505.999
  O     -677.747     217.748    -505.944
  P     -677.833     216.318    -506.626
  C     -678.503     217.245    -508.962
  O     -678.861     216.408    -507.861
  C     -679.056     216.657    -510.267
  O     -678.486     215.354    -510.552
  C     -680.567     216.454    -510.239
  O     -681.246     217.688    -510.401
  C     -680.734     215.498    -511.427
  O     -680.705     216.211    -512.680
  C     -679.483     214.608    -511.291
  N     -681.146     209.806    -511.930
  C     -681.021     210.839    -512.791
  N     -680.564     212.101    -512.537
  C     -680.215     212.222    -511.253
  C     -680.289     211.265    -510.257
  C     -680.796     210.001    -510.645
  N     -680.955     208.952    -509.739
  N     -679.856     211.762    -509.041
  C     -679.540     213.025    -509.306
  N     -679.736     213.354    -510.639
  O     -678.613     215.422    -505.554
  O     -676.487     215.722    -506.954
  H     -679.901     216.776    -512.676
  H     -678.001     214.793    -505.122
  H     -681.303     210.642    -513.830
  H     -679.176     213.739    -508.566
  H     -679.033     214.379    -512.264
  H     -681.670     214.941    -511.391
  H     -680.876     215.973    -509.302
  H     -678.771     217.337    -511.089
  H     -677.407     217.347    -509.028
  H     -681.390     208.105    -510.089
  H     -680.759     209.131    -508.778
  H     -678.903     218.255    -508.776
  P     -681.991     218.294    -509.110
  C     -683.919     216.662    -509.645
  O     -683.551     218.011    -509.411
  O     -681.855     219.864    -509.361
  O     -681.490     217.776    -507.791
  H     -682.077     220.113    -510.277
  H     -684.999     216.624    -509.797
  H     -683.659     216.039    -508.778
  H     -683.403     216.283    -510.547
  H     -676.560     219.378    -505.505
  H     -676.199     218.588    -507.021
  H     -675.731     217.840    -505.512

 3  4  5  6  7  8  9  10  11  12  22  25  29  30  31  32 0
 6-311+G(2d,p)
 ****
 33  36  37 0
 6-311+G(2d,p)
 ****
 1  2  13  14  15  16  17  18  19  20  21  23  24  26 0
 3-21G
 ****
 27  28  34  35  38  39  40  41  42  43  44  45  46  47  48 0
 3-21G
 ****


