%nproc=1
%NoSave
%Mem=1900MB
#P OB98/GEN NMR

erre ene a

0 1
  C      224.452      61.771    -105.527
  O      224.968      60.824    -104.581
  P      226.506      60.981    -104.145
  C      228.823      60.686    -105.296
  O      227.429      60.411    -105.327
  C      229.610      59.399    -105.018
  O      229.277      58.853    -103.730
  C      229.312      58.292    -106.015
  O      229.997      58.512    -107.233
  C      229.783      57.050    -105.258
  O      231.168      56.767    -105.517
  C      229.570      57.445    -103.776
  N      228.530      56.665    -103.129
  C      228.955      55.501    -102.480
  O      230.148      55.180    -102.489
  N      228.018      54.723    -101.848
  C      226.764      55.062    -101.890
  N      225.884      54.241    -101.251
  C      226.272      56.266    -102.589
  C      227.202      57.012    -103.182
  O      226.668      59.892    -102.990
  O      226.862      62.352    -103.669
  H      231.235      56.636    -106.489
  H      227.316      60.198    -102.323
  H      225.218      56.501    -102.601
  H      226.930      57.916    -103.721
  H      230.502      57.305    -103.206
  H      229.219      56.162    -105.552
  H      228.229      58.224    -106.192
  H      230.682      59.639    -105.033
  H      226.253      53.426    -100.785
  H      229.049      61.429    -104.533
  H      224.886      54.411    -101.225
  H      229.119      61.128    -106.259
  P      229.271      59.400    -108.350
  C      227.548      58.852    -110.179
  O      228.549      58.342    -109.313
  O      230.502      59.877    -109.255
  O      228.436      60.544    -107.883
  H      230.200      60.512    -109.931
  H      227.294      58.083    -110.917
  H      227.918      59.733    -110.709
  H      226.655      59.104    -109.605
  H      223.424      61.552    -105.727
  H      225.013      61.709    -106.436
  H      224.534      62.759    -105.124

 3  4  5  6  7  8  9  10  11  12  13  21  23  27  28  29  30  32 0
 6-311+G(2d,p)
 ****
 34  35 0
 6-311+G(2d,p)
 ****
 1  2  14  15  16  17  18  19  20  22  24  25  26 0
 3-21G
 ****
 31  33  36  37  38  39  40  41  42  43  44  45  46 0
 3-21G
 ****


