%nproc=1
%NoSave
%Mem=1900MB
#P OB98/GEN NMR

erre ene a

0 1
  C      202.189      33.825      21.994
  O      203.216      34.820      21.840
  P      203.175      35.792      20.557
  C      201.933      37.891      21.508
  O      203.154      37.313      21.069
  C      202.088      39.408      21.648
  O      200.800      40.032      21.853
  C      202.937      39.849      22.829
  O      204.323      39.677      22.582
  C      202.524      41.306      22.974
  O      203.249      42.140      22.053
  C      201.028      41.253      22.595
  N      200.151      41.342      23.759
  C      200.236      42.510      24.509
  O      201.042      43.409      24.266
  N      199.385      42.596      25.577
  C      198.525      41.623      25.998
  O      197.801      41.752      26.980
  C      198.539      40.380      25.214
  C      199.343      40.296      24.153
  O      201.671      35.597      20.040
  O      204.152      35.476      19.475
  H      202.902      43.047      22.164
  H      201.634      35.756      19.077
  H      199.412      43.446      26.119
  H      197.888      39.574      25.533
  H      199.362      39.384      23.559
  H      200.785      42.070      21.906
  H      202.710      41.699      23.976
  H      202.636      39.300      23.730
  H      202.507      39.795      20.705
  H      201.664      37.467      22.483
  H      201.145      37.647      20.789
  P      205.200      39.061      23.780
  C      204.738      36.627      22.950
  O      205.685      37.628      23.250
  O      204.060      38.748      24.862
  O      206.272      39.987      24.252
  H      203.224      38.486      24.443
  H      203.810      37.056      22.559
  H      204.520      36.052      23.853
  H      205.161      35.959      22.198
  H      202.363      33.269      22.891
  H      202.206      33.162      21.154
  H      201.234      34.304      22.051

 3  4  5  6  7  8  9  10  11  12  13  23  28  29  30  31  32 0
 6-311+G(2d,p)
 ****
 33  34 0
 6-311+G(2d,p)
 ****
 1  2  14  15  16  17  18  19  20  21  22  24  25  26 0
 3-21G
 ****
 27  35  36  37  38  39  40  41  42  43  44  45 0
 3-21G
 ****


