%nproc=1
%NoSave
%Mem=1900MB
#P OB98/GEN NMR

erre ene a

0 1
  C      726.268     -56.255    -453.497
  O      725.555     -56.560    -452.279
  P      725.096     -58.075    -452.000
  C      726.692     -58.536    -449.975
  O      726.312     -58.856    -451.307
  C      726.068     -59.535    -448.996
  O      726.600     -60.858    -449.202
  C      726.331     -59.225    -447.528
  O      725.516     -58.159    -447.050
  C      726.022     -60.562    -446.875
  O      724.608     -60.717    -446.656
  C      726.514     -61.559    -447.946
  N      727.792     -62.177    -447.590
  C      727.899     -63.547    -447.792
  O      726.961     -64.247    -448.192
  N      729.110     -64.105    -447.481
  C      730.183     -63.453    -446.940
  O      731.231     -64.016    -446.669
  C      729.983     -62.023    -446.672
  C      728.813     -61.462    -446.996
  O      725.092     -58.701    -453.473
  O      723.760     -58.239    -451.353
  H      724.485     -61.601    -446.269
  H      724.444     -59.428    -453.519
  H      729.218     -65.101    -447.646
  H      730.803     -61.469    -446.221
  H      728.659     -60.407    -446.807
  H      725.775     -62.359    -448.093
  H      726.507     -60.681    -445.908
  H      727.393     -58.992    -447.384
  H      724.981     -59.571    -449.189
  H      726.346     -57.527    -449.736
  H      727.791     -58.558    -449.905
  P      726.235     -56.737    -446.855
  C      725.774     -55.945    -449.299
  O      726.716     -56.308    -448.316
  O      727.565     -57.177    -446.083
  O      725.386     -55.756    -446.114
  H      727.889     -58.056    -446.368
  H      724.892     -55.456    -448.862
  H      725.460     -56.844    -449.842
  H      726.243     -55.250    -450.010
  H      726.496     -55.210    -453.524
  H      725.660     -56.509    -454.340
  H      727.176     -56.820    -453.530

 3  4  5  6  7  8  9  10  11  12  13  23  28  29  30  31  32 0
 6-311+G(2d,p)
 ****
 33  34 0
 6-311+G(2d,p)
 ****
 1  2  14  15  16  17  18  19  20  21  22  24  25  26 0
 3-21G
 ****
 27  35  36  37  38  39  40  41  42  43  44  45 0
 3-21G
 ****


