%nproc=1
%NoSave
%Mem=1900MB
#P OB98/GEN NMR

erre ene a

0 1
  C      482.398      61.827    -338.908
  O      481.819      62.439    -337.772
  P      482.033      61.827    -336.299
  C      484.246      63.131    -336.008
  O      482.921      62.911    -335.525
  C      484.613      64.605    -335.837
  O      483.624      65.429    -336.492
  C      484.655      65.088    -334.392
  O      485.842      64.649    -333.744
  C      484.531      66.590    -334.581
  O      485.801      67.157    -334.958
  C      483.551      66.681    -335.773
  N      482.180      66.966    -335.349
  C      481.747      68.287    -335.483
  O      482.499      69.160    -335.929
  N      480.464      68.597    -335.121
  C      479.681      67.672    -334.655
  N      478.392      68.024    -334.383
  C      480.107      66.281    -334.452
  C      481.357      65.995    -334.820
  O      482.579      60.439    -336.271
  O      480.610      61.972    -335.592
  H      486.369      67.144    -334.165
  H      480.009      61.201    -335.744
  H      479.421      65.550    -334.046
  H      481.743      64.994    -334.723
  H      483.875      67.458    -336.471
  H      484.189      67.118    -333.685
  H      483.789      64.710    -333.837
  H      485.585      64.773    -336.325
  H      478.097      68.942    -334.702
  H      484.276      62.875    -337.069
  H      477.665      67.331    -334.292
  H      484.938      62.489    -335.465
  P      485.767      64.374    -332.166
  C      485.432      61.817    -332.382
  O      486.279      62.863    -331.954
  O      484.197      64.315    -331.874
  O      486.459      65.403    -331.330
  H      483.889      65.162    -331.491
  H      486.008      60.892    -332.389
  H      485.058      62.003    -333.398
  H      484.594      61.703    -331.695
  H      482.139      62.384    -339.784
  H      482.031      60.826    -339.000
  H      483.462      61.808    -338.800

 3  4  5  6  7  8  9  10  11  12  13  23  27  28  29  30  32 0
 6-311+G(2d,p)
 ****
 34  35 0
 6-311+G(2d,p)
 ****
 1  2  14  15  16  17  18  19  20  21  22  24  25  26 0
 3-21G
 ****
 31  33  36  37  38  39  40  41  42  43  44  45  46 0
 3-21G
 ****


