%nproc=1
%NoSave
%Mem=1900MB
#P OB98/GEN NMR

erre ene a

0 1
  C       19.535     124.471     102.556
  O       18.268     124.385     103.178
  H       20.241     124.921     103.258
  H       19.475     125.102     101.665
  H       19.891     123.474     102.285
  P       17.073     123.803     102.278
  C       16.023     126.163     102.059
  O       15.838     124.813     102.460
  C       15.090     127.086     102.839
  O       13.709     126.790     102.535
  C       15.237     126.994     104.354
  O       16.308     127.804     104.809
  C       13.878     127.500     104.814
  O       13.824     128.942     104.777
  C       12.936     126.894     103.764
  N        9.178     124.532     106.171
  C        9.473     125.878     106.081
  N        8.661     126.722     106.756
  N       10.480     126.358     105.401
  C       11.240     125.397     104.824
  C       11.055     124.033     104.842
  C        9.904     123.520     105.553
  O        9.543     122.347     105.601
  N       12.031     123.390     104.122
  C       12.821     124.361     103.703
  N       12.386     125.597     104.108
  O       16.602     122.499     103.082
  O       17.434     123.468     100.871
  H       12.970     129.239     105.136
  H       16.368     121.803     102.439
  H        8.371     124.222     106.682
  H       13.708     124.223     103.098
  H       12.084     127.549     103.554
  H       13.670     127.211     105.845
  H        8.069     126.407     107.510
  H       15.364     125.953     104.675
  H        8.923     127.701     106.748
  H       15.280     128.111     102.497
  H       15.806     126.246     100.989
  H       17.063     126.454     102.236
  P       17.582     127.081     105.457
  C       17.543     128.466     107.653
  O       18.265     128.110     106.484
  O       18.618     127.023     104.238
  O       17.317     125.716     105.997
  H       18.669     126.114     103.888
  H       18.122     129.153     108.234
  H       17.345     127.588     108.231
  H       16.618     128.926     107.375

 6  7  8  9  10  11  12  13  14  15  26  29  33  34 0
 6-311+G(2d,p)
 ****
 36  38  39  40  41 0
 6-311+G(2d,p)
 ****
 1  2  3  4  5  16  17  18  19  20  21  22  23  24  25 0
 3-21G
 ****
 27  28  30  31  32  35  37  42  43  44  45  46  47 0
 3-21G
 ****
 48  49 0
 3-21G
 ****


