%nproc=1
%NoSave
%Mem=1900MB
#P OB98/GEN NMR

erre ene a

0 1
  C       -1.519     -19.948     -26.706
  O       -2.446     -20.964     -27.033
  H       -2.054     -18.999     -26.619
  H       -0.767     -19.857     -27.495
  H       -1.035     -20.170     -25.751
  P       -1.849     -22.440     -27.230
  C        0.399     -23.111     -28.336
  O       -0.785     -22.333     -28.429
  C        1.346     -22.777     -29.484
  O        1.878     -21.441     -29.335
  C        2.544     -23.711     -29.604
  O        2.202     -24.895     -30.303
  C        3.526     -22.837     -30.372
  O        3.243     -22.842     -31.786
  C        3.264     -21.451     -29.767
  N        5.022     -17.679     -26.911
  C        4.095     -17.666     -27.932
  N        3.602     -16.456     -28.277
  N        3.694     -18.736     -28.564
  C        4.298     -19.868     -28.132
  C        5.218     -20.013     -27.120
  C        5.629     -18.823     -26.408
  O        6.397     -18.776     -25.451
  N        5.583     -21.325     -26.966
  C        4.916     -21.965     -27.906
  N        4.135     -21.121     -28.651
  O       -3.063     -23.250     -27.891
  O       -1.358     -23.103     -25.989
  H        3.145     -23.760     -32.089
  H       -3.010     -24.184     -27.616
  H        5.277     -16.823     -26.450
  H        4.965     -23.030     -28.086
  H        3.380     -20.650     -30.506
  H        4.553     -23.189     -30.258
  H        4.101     -15.601     -28.072
  H        2.959     -23.940     -28.615
  H        2.938     -16.435     -29.041
  H        0.757     -22.788     -30.410
  H        0.133     -24.172     -28.388
  H        0.886     -22.912     -27.376
  P        3.266     -26.098     -30.297
  C        5.767     -26.183     -31.009
  O        4.476     -25.636     -31.244
  O        2.542     -27.236     -31.157
  O        3.655     -26.579     -28.941
  H        2.968     -28.100     -30.995
  H        6.460     -25.779     -31.718
  H        5.728     -27.247     -31.114
  H        6.085     -25.934     -30.018

 6  7  8  9  10  11  12  13  14  15  26  29  33  34 0
 6-311+G(2d,p)
 ****
 36  38  39  40  41 0
 6-311+G(2d,p)
 ****
 1  2  3  4  5  16  17  18  19  20  21  22  23  24  25 0
 3-21G
 ****
 27  28  30  31  32  35  37  42  43  44  45  46  47 0
 3-21G
 ****
 48  49 0
 3-21G
 ****


