%nproc=1
%NoSave
%Mem=1900MB
#P OB98/GEN NMR

erre ene a

0 1
  C     -149.992     118.189     118.113
  O     -151.064     117.576     117.423
  H     -149.157     118.317     117.421
  H     -149.671     117.551     118.939
  H     -150.294     119.170     118.492
  P     -152.432     117.379     118.236
  C     -153.354     115.608     119.894
  O     -152.270     116.011     119.069
  C     -152.994     114.348     120.681
  O     -152.923     113.219     119.758
  C     -151.645     114.424     121.418
  O     -151.767     113.695     122.643
  C     -150.714     113.653     120.496
  O     -149.555     113.171     121.173
  C     -151.664     112.561     120.003
  N     -149.264     108.451     118.358
  C     -149.673     108.807     119.631
  N     -149.399     107.929     120.621
  N     -150.293     109.920     119.910
  C     -150.531     110.687     118.820
  C     -150.177     110.456     117.510
  C     -149.465     109.228     117.219
  O     -149.061     108.871     116.116
  N     -150.574     111.491     116.698
  C     -151.170     112.343     117.516
  N     -151.167     111.901     118.811
  O     -153.475     116.996     117.081
  O     -152.884     118.561     119.029
  H     -149.033     113.947     121.468
  H     -153.936     117.795     116.764
  H     -148.780     107.588     118.199
  H     -151.610     113.289     117.225
  H     -151.826     111.778     120.755
  H     -150.383     114.291     119.667
  H     -148.967     107.030     120.475
  H     -151.302     115.445     121.625
  H     -149.728     108.148     121.555
  H     -153.810     114.129     121.382
  H     -154.224     115.399     119.262
  H     -153.604     116.422     120.584
  P     -151.778     114.522     124.017
  C     -150.207     116.255     125.158
  O     -150.589     115.600     123.959
  O     -151.235     113.455     125.081
  O     -153.119     115.055     124.401
  H     -151.587     113.659     125.968
  H     -149.408     116.937     124.953
  H     -149.881     115.529     125.873
  H     -151.043     116.793     125.552

 6  7  8  9  10  11  12  13  14  15  26  29  33  34 0
 6-311+G(2d,p)
 ****
 36  38  39  40  41 0
 6-311+G(2d,p)
 ****
 1  2  3  4  5  16  17  18  19  20  21  22  23  24  25 0
 3-21G
 ****
 27  28  30  31  32  35  37  42  43  44  45  46  47 0
 3-21G
 ****
 48  49 0
 3-21G
 ****


