%nproc=1
%NoSave
%Mem=1900MB
#P OB98/GEN NMR

erre ene a

0 1
  C       46.752    -192.161     265.340
  O       48.165    -192.088     265.370
  H       46.421    -192.169     264.298
  H       46.321    -191.289     265.842
  H       46.410    -193.078     265.827
  P       48.848    -192.082     266.820
  C       48.113    -190.961     269.056
  O       48.138    -190.897     267.638
  C       47.217    -189.853     269.623
  O       47.840    -188.565     269.352
  C       45.812    -189.809     268.997
  O       44.908    -189.274     269.979
  C       46.006    -188.795     267.880
  O       44.766    -188.353     267.376
  C       46.880    -187.778     268.612
  N       46.769    -183.099     266.553
  C       45.970    -183.701     267.459
  N       46.070    -184.946     267.968
  C       47.140    -185.583     267.465
  C       48.050    -185.094     266.540
  C       47.834    -183.788     266.071
  N       48.640    -183.174     265.142
  N       49.018    -186.043     266.259
  C       48.695    -187.084     267.002
  N       47.565    -186.854     267.739
  O       50.319    -191.519     266.531
  O       48.881    -193.399     267.521
  H       44.279    -189.092     266.951
  H       50.943    -192.260     266.422
  H       45.136    -183.103     267.822
  H       49.232    -188.024     267.038
  H       46.303    -187.188     269.333
  H       46.547    -189.241     267.039
  H       45.453    -190.785     268.663
  H       47.166    -189.958     270.714
  H       49.136    -190.838     269.427
  H       47.730    -191.938     269.371
  H       48.405    -182.240     264.846
  H       49.424    -183.680     264.761
  P       43.624    -190.139     270.412
  C       41.485    -191.082     269.233
  O       42.616    -190.225     269.166
  O       42.853    -189.125     271.390
  O       43.915    -191.427     271.110
  H       42.336    -189.633     272.044
  H       40.930    -191.012     268.321
  H       40.863    -190.788     270.053
  H       41.810    -192.091     269.376

 6  7  8  9  10  11  12  13  14  15  25  28  32  33  34  35 0
 6-311+G(2d,p)
 ****
 36  37  40 0
 6-311+G(2d,p)
 ****
 1  2  3  4  5  16  17  18  19  20  21  22  23  24 0
 3-21G
 ****
 26  27  29  30  31  38  39 41  42  43  44  45  46  47  48 0
 3-21G
 ****


