%nproc=1
%NoSave
%Mem=1900MB
#P OB98/GEN NMR

erre ene a

0 1
  C      592.395     365.280     -83.000
  O      591.515     364.947     -81.945
  H      592.874     366.235     -82.768
  H      591.854     365.378     -83.947
  H      593.173     364.513     -83.094
  P      590.487     363.733     -82.171
  C      589.112     365.273     -83.717
  O      589.788     364.023     -83.591
  C      587.627     365.070     -84.018
  O      586.936     366.341     -84.068
  C      587.345     364.427     -85.370
  O      587.776     363.087     -85.484
  C      585.880     364.760     -85.577
  O      585.010     363.850     -84.903
  C      585.789     366.164     -84.928
  N      585.696     367.227     -85.920
  C      584.434     367.792     -86.094
  O      583.432     367.420     -85.485
  N      584.349     368.787     -87.029
  C      585.370     369.233     -87.823
  O      585.223     370.114     -88.659
  C      586.674     368.575     -87.619
  C      586.773     367.622     -86.688
  O      589.514     363.487     -81.055
  O      591.437     362.482     -82.485
  H      584.122     364.254     -84.908
  H      590.940     361.630     -82.404
  H      583.445     369.217     -87.162
  H      587.496     368.895     -88.236
  H      587.726     367.120     -86.516
  H      584.903     366.227     -84.282
  H      585.601     364.748     -86.631
  H      587.903     364.985     -86.134
  H      587.191     364.484     -83.203
  H      589.577     365.822     -84.540
  H      589.237     365.847     -82.795
  P      587.664     362.230     -86.824
  C      585.159     361.548     -86.476
  O      586.126     362.208     -87.287
  O      588.431     360.949     -86.865
  O      588.325     363.231     -87.905
  H      588.787     362.673     -88.565
  H      584.195     361.631     -86.932
  H      585.136     362.002     -85.507
  H      585.420     360.515     -86.379

 6  7  8  9  10  11  12  13  14  15  16  26  31  32  33  34  35 0
 6-311+G(2d,p)
 ****
 36  37 0
 6-311+G(2d,p)
 ****
 1  2  3  4  5  17  18  19  20  21  22  23  24  25 0
 3-21G
 ****
 27  28  29  30  38  39  40  41  42  43  44  45 0
 3-21G
 ****


