%nproc=1
%NoSave
%Mem=1900MB
#P OB98/GEN NMR

erre ene a

0 1
  C      308.386     -81.460      59.030
  O      307.859     -80.827      57.856
  P      306.803     -81.643      56.972
  C      304.964     -81.732      58.809
  O      305.333     -81.297      57.509
  C      304.059     -82.965      58.721
  O      303.990     -83.668      59.981
  C      302.620     -82.643      58.344
  O      302.462     -82.496      56.940
  C      301.905     -83.900      58.817
  O      302.069     -84.951      57.843
  C      302.664     -84.239      60.105
  N      300.888     -85.418      64.694
  C      301.501     -86.213      63.745
  N      301.673     -87.514      64.070
  N      301.908     -85.775      62.582
  C      301.687     -84.452      62.405
  C      301.091     -83.560      63.266
  C      300.630     -84.062      64.542
  O      300.068     -83.407      65.415
  N      301.039     -82.302      62.726
  C      301.623     -82.425      61.549
  N      302.018     -83.715      61.297
  O      307.013     -83.153      57.468
  O      307.004     -81.513      55.499
  H      301.417     -85.643      58.068
  H      306.779     -83.770      56.751
  H      300.589     -85.810      65.572
  H      301.779     -81.615      60.847
  H      302.781     -85.318      60.251
  H      300.830     -83.746      58.939
  H      301.429     -87.907      64.964
  H      302.252     -81.769      58.897
  H      302.149     -88.105      63.399
  H      304.483     -83.644      57.968
  H      304.446     -80.931      59.345
  H      305.869     -81.938      59.385
  P      301.675     -81.205      56.405
  C      303.354     -79.227      56.503
  O      302.780     -80.262      55.732
  O      301.284     -80.443      57.758
  O      300.478     -81.506      55.573
  H      300.443     -79.965      57.638
  H      304.189     -78.797      55.945
  H      303.725     -79.612      57.455
  H      302.613     -78.442      56.687
  H      309.074     -80.798      59.514
  H      308.893     -82.361      58.753
  H      307.585     -81.693      59.700

 3  4  5  6  7  8  9  10  11  12  23  26  30  31 0
 6-311+G(2d,p)
 ****
 33  35  36  37  38 0
 6-311+G(2d,p)
 ****
 1  2  13  14  15  16  17  18  19  20  21  22  24  25 0
 3-21G
 ****
 27  28  29  32  34  39  40  41  42  43  44  45  46  47  48  49 0
 3-21G
 ****


