%nproc=1
%NoSave
%Mem=1900MB
#P OB98/GEN NMR

erre ene a

0 1
  C      171.386     -29.080      76.864
  O      170.210     -29.027      76.090
  P      169.114     -27.874      76.222
  C      167.605     -29.244      77.862
  O      168.349     -28.055      77.619
  C      167.024     -29.250      79.283
  O      168.117     -29.105      80.228
  C      166.078     -28.061      79.511
  O      164.899     -28.387      80.241
  C      166.996     -27.002      80.105
  O      166.306     -25.982      80.814
  C      167.956     -27.853      80.931
  N      170.910     -25.149      84.058
  C      169.694     -25.749      84.316
  N      169.115     -25.436      85.495
  N      169.093     -26.552      83.474
  C      169.740     -26.681      82.291
  C      170.949     -26.136      81.923
  C      171.618     -25.281      82.876
  O      172.642     -24.635      82.647
  N      171.264     -26.426      80.623
  C      170.229     -27.120      80.189
  N      169.263     -27.269      81.156
  O      168.296     -27.587      75.004
  O      170.035     -26.579      76.508
  H      166.925     -25.239      80.935
  H      169.594     -25.814      76.086
  H      171.286     -24.475      84.717
  H      170.113     -27.506      79.183
  H      167.549     -28.074      81.919
  H      167.517     -26.514      79.277
  H      169.482     -24.711      86.093
  H      165.686     -27.694      78.555
  H      168.126     -25.658      85.596
  H      166.543     -30.215      79.473
  H      168.309     -30.077      77.740
  H      166.814     -29.362      77.120
  P      163.467     -27.685      80.197
  C      163.824     -26.040      82.134
  O      163.616     -26.184      80.741
  O      162.620     -28.397      81.350
  O      162.756     -27.798      78.888
  H      161.699     -28.529      81.046
  H      163.633     -24.998      82.409
  H      164.861     -26.288      82.379
  H      163.147     -26.689      82.698
  H      171.955     -29.944      76.590
  H      171.128     -29.137      77.901
  H      171.968     -28.200      76.689

 3  4  5  6  7  8  9  10  11  12  23  26  30  31 0
 6-311+G(2d,p)
 ****
 33  35  36  37  38 0
 6-311+G(2d,p)
 ****
 1  2  13  14  15  16  17  18  19  20  21  22  24  25 0
 3-21G
 ****
 27  28  29  32  34  39  40  41  42  43  44  45  46  47  48  49 0
 3-21G
 ****


