%nproc=1
%NoSave
%Mem=1900MB
#P OB98/GEN NMR

erre ene a

0 1
  C      378.986    -413.042    -518.386
  O      380.140    -413.062    -517.573
  H      378.551    -414.044    -518.397
  H      379.246    -412.766    -519.410
  H      378.246    -412.345    -517.985
  P      380.974    -411.702    -517.394
  C      380.150    -411.058    -515.021
  O      380.060    -410.810    -516.414
  C      380.798    -409.875    -514.311
  O      382.143    -409.642    -514.786
  C      380.086    -408.538    -514.516
  O      378.870    -408.421    -513.797
  C      381.156    -407.591    -514.005
  O      381.186    -407.629    -512.565
  C      382.427    -408.225    -514.610
  N      382.810    -407.617    -515.882
  C      383.953    -406.812    -515.871
  O      384.586    -406.628    -514.832
  N      384.343    -406.192    -517.041
  C      383.636    -406.349    -518.114
  N      384.060    -405.709    -519.241
  C      382.416    -407.179    -518.168
  C      382.063    -407.774    -517.032
  O      381.412    -411.029    -518.657
  O      382.188    -412.098    -516.429
  H      380.344    -407.248    -512.256
  H      382.744    -411.290    -516.293
  H      381.844    -407.249    -519.084
  H      381.175    -408.393    -516.987
  H      383.273    -408.151    -513.912
  H      380.989    -406.556    -514.294
  H      379.930    -408.339    -515.584
  H      380.874    -410.129    -513.247
  H      384.902    -405.149    -519.173
  H      380.744    -411.970    -514.877
  H      383.529    -405.714    -520.101
  H      379.155    -411.212    -514.602
  P      377.753    -407.443    -514.409
  C      376.757    -409.150    -516.116
  O      377.483    -407.949    -515.905
  O      378.548    -406.065    -514.602
  O      376.521    -407.285    -513.581
  H      378.362    -405.457    -513.856
  H      376.671    -409.335    -517.166
  H      375.780    -409.056    -515.689
  H      377.272    -409.965    -515.651

 6  7  8  9  10  11  12  13  14  15  16  26  30  31  32  33  35 0
 6-311+G(2d,p)
 ****
 37  38 0
 6-311+G(2d,p)
 ****
 1  2  3  4  5  17  18  19  20  21  22  23  24  25 0
 3-21G
 ****
 27  28  29  34  36  39  40  41  42  43  44  45  46 0
 3-21G
 ****


