%nproc=1
%NoSave
%Mem=1900MB
#P OB98/GEN NMR

erre ene a

0 1
  C      -20.956      25.801      19.908
  O      -21.201      24.705      20.764
  H      -21.752      26.542      20.009
  H      -20.006      26.263      20.188
  H      -20.892      25.463      18.870
  P      -22.575      23.907      20.543
  C      -21.690      22.334      18.682
  O      -22.577      23.390      19.020
  C      -22.441      21.247      17.917
  O      -22.880      21.799      16.651
  C      -21.617      19.981      17.626
  O      -22.262      18.832      18.181
  C      -21.635      19.858      16.111
  O      -21.791      18.515      15.657
  C      -22.814      20.731      15.698
  N      -22.703      19.444      10.770
  C      -23.258      18.835      11.840
  N      -23.346      19.282      13.109
  C      -22.804      20.507      13.218
  C      -22.222      21.263      12.215
  C      -22.164      20.675      10.941
  N      -21.549      21.272       9.863
  N      -21.767      22.470      12.712
  C      -22.031      22.425      14.002
  N      -22.640      21.250      14.357
  O      -23.678      25.067      20.547
  O      -22.870      22.860      21.564
  H      -20.938      18.066      15.813
  H      -24.416      24.816      21.133
  H      -23.684      17.853      11.654
  H      -21.766      23.185      14.726
  H      -23.764      20.185      15.735
  H      -20.691      20.250      15.711
  H      -20.591      20.049      18.003
  H      -23.344      20.988      18.485
  H      -21.271      21.899      19.596
  H      -21.451      20.730       9.021
  H      -21.051      22.138      10.011
  H      -20.869      22.736      18.080
  P      -21.469      18.051      19.344
  C      -22.478      19.274      21.407
  O      -21.337      19.054      20.589
  O      -19.976      17.978      18.770
  O      -22.018      16.699      19.650
  H      -19.512      17.205      19.143
  H      -22.230      19.962      22.188
  H      -22.793      18.346      21.836
  H      -23.270      19.679      20.813

 6  7  8  9  10  11  12  13  14  15  25  28  32  33  34  35 0
 6-311+G(2d,p)
 ****
 36  39  40 0
 6-311+G(2d,p)
 ****
 1  2  3  4  5  16  17  18  19  20  21  22  23  24 0
 3-21G
 ****
 26  27  29  30  31  37  38  41  42  43  44  45  46  47  48 0
 3-21G
 ****


