%nproc=1
%NoSave
%Mem=1900MB
#P OB98/GEN NMR

erre ene a

0 1
  C     -152.865    1077.782     118.784
  O     -152.929    1079.200     118.921
  P     -154.290    1079.912     118.443
  C     -155.154    1080.489     120.826
  O     -155.367    1079.777     119.626
  C     -155.838    1081.859     120.747
  O     -157.273    1081.724     120.661
  C     -155.581    1082.725     121.973
  O     -154.269    1083.264     121.957
  C     -156.690    1083.761     121.826
  O     -156.336    1084.752     120.865
  C     -157.855    1082.915     121.283
  N     -161.991    1084.291     123.968
  C     -161.279    1084.927     123.012
  N     -160.185    1084.492     122.358
  C     -159.859    1083.256     122.752
  C     -160.490    1082.473     123.715
  C     -161.594    1083.055     124.344
  N     -162.322    1082.404     125.326
  N     -159.843    1081.267     123.852
  C     -158.826    1081.316     123.012
  N     -158.792    1082.494     122.310
  O     -154.832    1078.952     117.299
  O     -154.076    1081.312     117.948
  H     -155.747    1085.398     121.290
  H     -154.733    1079.379     116.424
  H     -161.627    1085.933     122.744
  H     -158.110    1080.533     122.874
  H     -158.429    1083.430     120.516
  H     -156.910    1084.283     122.772
  H     -155.723    1082.145     122.900
  H     -155.484    1082.375     119.841
  H     -154.087    1080.618     121.010
  H     -163.070    1082.914     125.792
  H     -161.986    1081.510     125.673
  H     -155.545    1079.906     121.668
  P     -153.392    1083.120     123.285
  C     -152.270    1080.876     122.685
  O     -153.252    1081.522     123.482
  O     -154.429    1083.527     124.427
  O     -152.100    1083.888     123.291
  H     -155.301    1083.092     124.288
  H     -152.259    1079.812     122.944
  H     -151.275    1081.304     122.869
  H     -152.514    1080.996     121.627
  H     -151.916    1077.432     119.134
  H     -152.985    1077.517     117.754
  H     -153.646    1077.332     119.361

 3  4  5  6  7  8  9  10  11  12  22  25  29  30  31  32 0
 6-311+G(2d,p)
 ****
 33  36  37 0
 6-311+G(2d,p)
 ****
 1  2  13  14  15  16  17  18  19  20  21  23  24  26 0
 3-21G
 ****
 27  28  34  35  38  39  40  41  42  43  44  45  46  47  48 0
 3-21G
 ****


