%nproc=1
%NoSave
%Mem=1900MB
#P OB98/GEN NMR

erre ene a

0 1
  C      -42.232    -188.678      -5.933
  O      -42.369    -189.768      -6.820
  H      -41.427    -188.033      -6.294
  H      -41.978    -189.026      -4.929
  H      -43.157    -188.094      -5.903
  P      -43.415    -190.927      -6.447
  C      -45.124    -189.970      -8.143
  O      -44.851    -190.288      -6.788
  C      -46.142    -190.951      -8.721
  O      -47.356    -190.956      -7.943
  C      -46.594    -190.640     -10.144
  O      -45.619    -190.948     -11.127
  C      -47.815    -191.540     -10.235
  O      -47.396    -192.903     -10.417
  C      -48.443    -191.336      -8.834
  N      -49.493    -190.321      -8.821
  C      -50.710    -190.669      -9.422
  O      -50.863    -191.779      -9.928
  N      -51.717    -189.735      -9.469
  C      -51.520    -188.551      -8.978
  N      -52.534    -187.648      -9.093
  C      -50.262    -188.148      -8.321
  C      -49.300    -189.067      -8.283
  O      -43.287    -191.519      -5.080
  O      -43.256    -192.001      -7.623
  H      -48.181    -193.410     -10.692
  H      -43.875    -192.747      -7.431
  H      -50.148    -187.146      -7.935
  H      -48.340    -188.840      -7.832
  H      -48.857    -192.277      -8.452
  H      -48.477    -191.288     -11.069
  H      -46.920    -189.598     -10.232
  H      -45.709    -191.957      -8.648
  H      -53.364    -187.946      -9.586
  H      -44.182    -190.009      -8.699
  H      -52.366    -186.652      -8.994
  H      -45.538    -188.960      -8.218
  P      -45.578    -190.041     -12.453
  C      -43.599    -188.390     -12.075
  O      -44.999    -188.610     -12.016
  O      -47.124    -189.755     -12.737
  O      -44.880    -190.648     -13.630
  H      -47.493    -190.404     -13.366
  H      -43.381    -187.393     -11.753
  H      -43.259    -188.522     -13.081
  H      -43.101    -189.089     -11.436

 6  7  8  9  10  11  12  13  14  15  16  26  30  31  32  33  35 0
 6-311+G(2d,p)
 ****
 37  38 0
 6-311+G(2d,p)
 ****
 1  2  3  4  5  17  18  19  20  21  22  23  24  25 0
 3-21G
 ****
 27  28  29  34  36  39  40  41  42  43  44  45  46 0
 3-21G
 ****


