%nproc=1
%NoSave
%Mem=1900MB
#P OB98/GEN NMR

erre ene a

0 1
  C       51.956     -97.676     262.599
  O       52.891     -98.716     262.301
  P       53.723     -99.388     263.493
  C       55.902     -98.059     263.087
  O       54.846     -98.352     263.994
  C       56.987     -97.196     263.770
  O       56.397     -95.970     264.273
  C       57.665     -97.915     264.949
  O       59.097     -97.893     264.869
  C       57.054     -97.248     266.171
  O       57.878     -97.350     267.326
  C       56.750     -95.833     265.662
  N       55.689     -95.186     266.450
  C       55.621     -93.799     266.388
  O       56.449     -93.112     265.782
  N       54.608     -93.215     267.110
  C       53.728     -93.863     267.917
  O       52.864     -93.295     268.581
  C       53.885     -95.329     267.992
  C       54.844     -95.912     267.261
  O       54.219    -100.776     263.237
  O       52.677     -99.372     264.713
  H       58.710     -96.856     267.157
  H       52.790    -100.209     265.214
  H       54.540     -92.212     267.066
  H       53.214     -95.877     268.644
  H       54.988     -96.986     267.304
  H       57.639     -95.191     265.732
  H       56.106     -97.749     266.404
  H       57.422     -98.986     264.965
  H       57.723     -96.941     262.999
  H       55.508     -97.509     262.233
  H       56.319     -98.989     262.697
  P       59.958     -98.702     263.798
  C       60.016    -100.879     265.216
  O       59.664    -100.268     263.985
  O       61.407     -98.347     263.719
  O       59.227     -98.355     262.410
  H       59.906     -98.222     261.719
  H       60.105    -101.963     265.054
  H       59.242    -100.690     265.961
  H       60.981    -100.504     265.588
  H       51.492     -97.343     261.694
  H       52.468     -96.857     263.059
  H       51.208     -98.049     263.267

 3  4  5  6  7  8  9  10  11  12  13  23  28  29  30  31  32 0
 6-311+G(2d,p)
 ****
 33  34 0
 6-311+G(2d,p)
 ****
 1  2  14  15  16  17  18  19  20  21  22  24  25  26  27 0
 3-21G
 ****
 35  36  37  38  39  40  41  42  43  44  45 0
 3-21G
 ****


