%nproc=1
%NoSave
%Mem=1900MB
#P OB98/GEN NMR

erre ene a

0 1
  C       96.895    -158.912    -623.256
  O       95.807    -158.272    -623.903
  P       94.505    -159.162    -624.211
  C       93.088    -158.855    -622.046
  O       93.962    -159.688    -622.798
  C       91.693    -159.480    -621.976
  O       91.128    -159.577    -623.298
  C       91.659    -160.893    -621.411
  O       91.809    -160.886    -620.000
  C       90.296    -161.357    -621.902
  O       89.259    -160.824    -621.063
  C       90.223    -160.714    -623.303
  N       89.452    -165.353    -625.331
  C       88.926    -164.746    -624.244
  N       89.198    -163.520    -623.755
  C       90.115    -162.896    -624.519
  C       90.749    -163.401    -625.640
  C       90.385    -164.687    -626.050
  N       90.928    -165.309    -627.155
  N       91.649    -162.476    -626.143
  C       91.545    -161.435    -625.344
  N       90.616    -161.632    -624.360
  O       95.113    -160.475    -624.885
  O       93.484    -158.496    -625.086
  H       89.329    -161.267    -620.198
  H       94.509    -160.833    -625.565
  H       88.191    -165.323    -623.691
  H       92.110    -160.519    -625.449
  H       89.224    -160.341    -623.544
  H       90.185    -162.448    -621.906
  H       92.453    -161.502    -621.866
  H       91.056    -158.814    -621.378
  H       93.011    -157.874    -622.528
  H       90.722    -166.284    -627.292
  H       91.724    -164.867    -627.606
  H       93.504    -158.714    -621.046
  P       92.515    -162.165    -619.330
  C       94.856    -161.480    -620.139
  O       93.801    -162.421    -620.260
  O       91.531    -163.344    -619.767
  O       92.779    -162.034    -617.865
  H       91.320    -163.311    -620.715
  H       95.687    -161.799    -620.777
  H       95.206    -161.429    -619.104
  H       94.518    -160.495    -620.466
  H       97.689    -158.209    -623.113
  H       97.242    -159.724    -623.861
  H       96.575    -159.286    -622.306

 3  4  5  6  7  8  9  10  11  12  22  25  29  30  31  32 0
 6-311+G(2d,p)
 ****
 33  36  37 0
 6-311+G(2d,p)
 ****
 1  2  13  14  15  16  17  18  19  20  21  23  24  26 0
 3-21G
 ****
 27  28  34  35  38  39  40  41  42  43  44  45  46  47  48 0
 3-21G
 ****


