%nproc=1
%NoSave
%Mem=1900MB
#P OB98/GEN NMR

erre ene a

0 1
  C      359.401    -263.845       0.985
  O      359.442    -262.476       0.620
  H      358.482    -264.030       1.546
  H      360.262    -264.098       1.609
  H      359.394    -264.469       0.082
  P      360.738    -261.988      -0.191
  C      359.929    -262.948      -2.443
  O      360.206    -261.771      -1.696
  C      358.706    -262.732      -3.349
  O      357.540    -262.546      -2.504
  C      358.839    -261.502      -4.252
  O      358.262    -261.802      -5.530
  C      358.000    -260.449      -3.548
  O      357.509    -259.453      -4.445
  C      356.914    -261.304      -2.893
  N      354.780    -256.977      -1.219
  C      355.130    -257.390      -2.457
  N      355.678    -258.572      -2.813
  C      355.818    -259.372      -1.748
  C      355.520    -259.087      -0.423
  C      354.986    -257.810      -0.173
  N      354.658    -257.365       1.086
  N      355.851    -260.155       0.394
  C      356.335    -261.079      -0.423
  N      356.346    -260.644      -1.726
  O      361.949    -262.844      -0.059
  O      360.896    -260.483       0.337
  H      356.858    -259.878      -5.037
  H      360.043    -260.020       0.372
  H      354.942    -256.684      -3.264
  H      356.701    -262.058      -0.123
  H      356.087    -261.526      -3.579
  H      358.607    -259.944      -2.782
  H      359.877    -261.182      -4.381
  H      358.537    -263.645      -3.933
  H      359.734    -263.785      -1.762
  H      354.257    -256.439       1.180
  H      354.772    -257.983       1.878
  H      360.810    -263.185      -3.046
  P      359.093    -261.428      -6.850
  C      358.987    -263.876      -7.674
  O      358.748    -262.501      -7.988
  O      360.552    -261.146      -6.645
  O      358.331    -260.116      -7.383
  H      358.993    -259.494      -7.747
  H      358.718    -264.485      -8.511
  H      358.398    -264.156      -6.825
  H      360.024    -264.016      -7.450

 6  7  8  9  10  11  12  13  14  15  25  28  32  33  34  35 0
 6-311+G(2d,p)
 ****
 36  39  40 0
 6-311+G(2d,p)
 ****
 1  2  3  4  5  16  17  18  19  20  21  22  23  24 0
 3-21G
 ****
 26  27  29  30  31  37  38  41  42  43  44  45  46  47 0
 3-21G
 ****
 48 0
 3-21G
 ****


