%nproc=1
%NoSave
%Mem=1900MB
#P OB98/GEN NMR

erre ene a

0 1
  C     -263.986    -465.351     183.882
  O     -262.979    -466.295     184.202
  H     -264.947    -465.729     184.238
  H     -264.035    -465.216     182.798
  H     -263.779    -464.394     184.367
  P     -261.464    -465.827     183.973
  C     -260.107    -467.742     185.147
  O     -260.556    -467.156     183.931
  C     -260.069    -469.263     185.012
  O     -261.396    -469.792     184.825
  C     -259.310    -469.764     183.796
  O     -257.913    -469.617     183.929
  C     -259.766    -471.216     183.753
  O     -258.988    -472.042     184.628
  C     -261.230    -471.112     184.254
  N     -262.185    -471.383     183.196
  C     -262.340    -472.734     182.858
  O     -261.704    -473.597     183.470
  N     -263.180    -473.062     181.830
  C     -263.787    -472.125     181.170
  N     -264.577    -472.519     180.133
  C     -263.645    -470.689     181.487
  C     -262.835    -470.391     182.501
  O     -261.089    -465.174     185.385
  O     -261.257    -464.922     182.809
  H     -259.444    -472.909     184.665
  H     -261.317    -465.732     186.149
  H     -264.183    -469.946     180.912
  H     -262.678    -469.362     182.805
  H     -261.407    -471.830     185.067
  H     -259.677    -471.639     182.751
  H     -259.676    -469.263     182.888
  H     -259.655    -469.677     185.942
  H     -264.599    -473.505     179.918
  H     -260.757    -467.448     185.981
  H     -265.032    -471.873     179.502
  H     -259.105    -467.352     185.355
  P     -257.043    -468.857     182.819
  C     -255.765    -467.364     184.485
  O     -255.670    -468.415     183.526
  O     -257.749    -467.754     182.103
  O     -256.556    -470.047     181.864
  H     -256.026    -470.733     182.303
  H     -254.794    -467.158     184.886
  H     -256.422    -467.661     185.276
  H     -256.150    -466.484     184.013

 6  7  8  9  10  11  12  13  14  15  16  26  30  31  32  33  35 0
 6-311+G(2d,p)
 ****
 37  38 0
 6-311+G(2d,p)
 ****
 1  2  3  4  5  17  18  19  20  21  22  23  24  25 0
 3-21G
 ****
 27  28  29  34  36  39  40  41  42  43  44  45  46 0
 3-21G
 ****


