%nproc=1
%NoSave
%Mem=1900MB
#P OB98/GEN NMR

erre ene a

0 1
  C      -73.341      94.428    -428.843
  O      -73.451      93.034    -429.039
  H      -73.523      94.645    -427.787
  H      -74.093      94.950    -429.439
  H      -72.341      94.780    -429.106
  P      -73.092      92.421    -430.476
  C      -71.830      90.349    -429.593
  O      -72.968      90.829    -430.297
  C      -72.106      90.304    -428.086
  O      -73.367      89.620    -427.868
  C      -71.028      89.567    -427.287
  O      -70.843      90.226    -426.034
  C      -71.633      88.196    -427.062
  O      -71.115      87.559    -425.896
  C      -73.124      88.520    -426.967
  N      -76.591      85.261    -425.269
  C      -76.032      86.364    -424.658
  N      -76.439      86.633    -423.399
  N      -75.146      87.139    -425.230
  C      -74.846      86.763    -426.497
  C      -75.331      85.693    -427.213
  C      -76.295      84.834    -426.562
  O      -76.814      83.835    -427.047
  N      -74.767      85.637    -428.464
  C      -73.945      86.667    -428.504
  N      -73.945      87.375    -427.330
  O      -71.929      93.064    -431.163
  O      -74.438      92.587    -431.323
  H      -71.610      87.922    -425.128
  H      -74.358      93.315    -431.967
  H      -77.261      84.693    -424.781
  H      -73.324      86.942    -429.347
  H      -73.423      88.823    -425.960
  H      -71.423      87.550    -427.925
  H      -77.135      86.093    -422.906
  H      -70.078      89.517    -427.820
  H      -76.067      87.453    -422.939
  H      -72.231      91.332    -427.726
  H      -70.994      91.024    -429.793
  H      -71.574      89.350    -429.960
  P      -69.722      91.373    -425.915
  C      -70.864      93.163    -424.469
  O      -69.900      92.122    -424.506
  O      -69.605      92.277    -427.098
  O      -68.376      90.529    -425.698
  H      -67.636      90.997    -426.138
  H      -70.895      93.586    -423.487
  H      -71.826      92.767    -424.717
  H      -70.598      93.921    -425.175

 6  7  8  9  10  11  12  13  14  15  26  29  33  34 0
 6-311+G(2d,p)
 ****
 36  38  39  40  41 0
 6-311+G(2d,p)
 ****
 1  2  3  4  5  16  17  18  19  20  21  22  23  24  25 0
 3-21G
 ****
 27  28  30  31  32  35  37  42  43  44  45  46  47 0
 3-21G
 ****
 48  49 0
 3-21G
 ****


