%nproc=1
%NoSave
%Mem=1900MB
#P OB98/GEN NMR

erre ene a

0 1
  C     -126.158    -218.034     -27.016
  O     -126.762    -218.838     -28.021
  P     -128.364    -218.935     -28.056
  C     -128.304    -219.359     -30.612
  O     -128.753    -219.812     -29.343
  C     -128.358    -220.478     -31.655
  O     -127.241    -221.385     -31.429
  C     -129.637    -221.323     -31.610
  O     -129.919    -221.732     -32.958
  C     -129.225    -222.535     -30.798
  O     -130.079    -223.653     -31.023
  C     -127.789    -222.714     -31.283
  N     -126.382    -227.422     -29.866
  C     -127.181    -226.987     -30.863
  N     -127.509    -225.713     -31.181
  C     -126.916    -224.849     -30.338
  C     -126.104    -225.150     -29.255
  C     -125.834    -226.510     -29.028
  N     -125.010    -226.959     -28.020
  N     -125.709    -223.996     -28.612
  C     -126.272    -223.017     -29.293
  N     -126.991    -223.482     -30.356
  O     -128.797    -217.449     -28.469
  O     -129.003    -219.349     -26.775
  H     -130.939    -223.478     -30.597
  H     -129.241    -217.008     -27.717
  H     -127.615    -227.759     -31.496
  H     -126.193    -221.962     -29.051
  H     -127.742    -223.208     -32.263
  H     -129.259    -222.293     -29.730
  H     -130.506    -220.803     -31.184
  H     -128.222    -220.035     -32.647
  H     -127.270    -219.020     -30.519
  H     -124.760    -227.934     -28.011
  H     -124.450    -226.280     -27.516
  H     -128.919    -218.509     -30.933
  P     -131.464    -221.911     -33.353
  C     -131.437    -221.017     -35.792
  O     -131.503    -222.149     -34.938
  O     -132.063    -220.437     -33.170
  O     -132.193    -222.916     -32.526
  H     -133.015    -220.493     -32.959
  H     -130.904    -221.300     -36.704
  H     -130.914    -220.179     -35.320
  H     -132.450    -220.706     -36.052
  H     -125.094    -218.070     -27.122
  H     -126.433    -218.404     -26.050
  H     -126.493    -217.023     -27.119

 3  4  5  6  7  8  9  10  11  12  22  25  29  30  31  32 0
 6-311+G(2d,p)
 ****
 33  36  37 0
 6-311+G(2d,p)
 ****
 1  2  13  14  15  16  17  18  19  20  21  23  24  26 0
 3-21G
 ****
 27  28  34  35  38  39  40  41  42  43  44  45  46  47  48 0
 3-21G
 ****


