%nproc=1
%NoSave
%Mem=1900MB
#P OB98/GEN NMR

erre ene a

0 1
  C     -204.138    -381.009     145.776
  O     -204.602    -381.300     144.456
  P     -206.195    -381.348     144.240
  C     -207.776    -379.381     144.911
  O     -206.704    -379.833     144.089
  C     -208.109    -377.921     144.624
  O     -206.930    -377.091     144.725
  C     -208.649    -377.663     143.221
  O     -210.029    -377.994     143.121
  C     -208.442    -376.164     143.092
  O     -209.525    -375.461     143.725
  C     -207.128    -375.942     143.873
  N     -204.832    -373.051     140.388
  C     -206.035    -372.857     141.047
  N     -206.704    -371.716     140.757
  N     -206.531    -373.705     141.917
  C     -205.738    -374.785     142.127
  C     -204.528    -375.090     141.537
  C     -204.003    -374.157     140.557
  O     -202.965    -374.291     139.924
  N     -204.016    -376.271     142.016
  C     -204.903    -376.667     142.922
  N     -205.967    -375.805     143.013
  O     -206.740    -381.774     145.687
  O     -206.636    -382.296     143.180
  H     -209.348    -374.497     143.617
  H     -207.594    -382.233     145.598
  H     -204.504    -372.367     139.726
  H     -204.812    -377.558     143.524
  H     -207.185    -375.056     144.514
  H     -208.412    -375.824     142.049
  H     -206.342    -370.993     140.154
  H     -208.045    -378.186     142.465
  H     -207.569    -371.550     141.262
  H     -208.839    -377.580     145.374
  H     -207.502    -379.496     145.963
  H     -208.648    -380.026     144.741
  P     -210.405    -379.379     142.396
  C     -209.892    -381.875     142.893
  O     -209.734    -380.529     143.292
  O     -209.508    -379.345     141.069
  O     -211.860    -379.540     142.092
  H     -209.945    -379.855     140.357
  H     -209.752    -381.990     141.815
  H     -210.893    -382.226     143.176
  H     -209.144    -382.483     143.408
  H     -203.068    -381.007     145.786
  H     -204.499    -381.754     146.453
  H     -204.499    -380.048     146.077

 3  4  5  6  7  8  9  10  11  12  23  26  30  31  33  0
 6-311+G(2d,p)
 ****
 35  36  37  38 0
 6-311+G(2d,p)
 ****
 1  2  13  14  15  16  17  18  19  20  21  22  24  25  27  28  29 0
 3-21G
 ****
 32  34  39  40  41  42  43  44  45  46  47  48  49 0
 3-21G
 ****


