%nproc=1
%NoSave
%Mem=1900MB
#P OB98/GEN NMR

erre ene a

0 1
  C      166.506    -118.498     -19.557
  O      165.491    -117.961     -20.415
  P      165.594    -116.407     -20.793
  C      164.960    -114.971     -22.881
  O      164.711    -116.141     -22.107
  C      165.317    -115.351     -24.318
  O      166.542    -116.108     -24.361
  C      164.275    -116.235     -24.983
  O      163.167    -115.467     -25.404
  C      165.073    -116.857     -26.129
  O      164.994    -116.055     -27.321
  C      166.516    -116.886     -25.575
  N      167.004    -118.238     -25.352
  C      167.339    -118.962     -26.498
  O      167.201    -118.463     -27.617
  N      167.807    -120.245     -26.350
  C      167.898    -120.767     -25.158
  N      168.363    -122.044     -25.076
  C      167.525    -120.041     -23.927
  C      167.090    -118.797     -24.097
  O      167.097    -116.254     -21.323
  O      165.310    -115.486     -19.649
  H      164.045    -115.973     -27.519
  H      167.441    -115.370     -21.103
  H      167.607    -120.521     -22.958
  H      166.788    -118.193     -23.243
  H      167.200    -116.392     -26.279
  H      164.682    -117.849     -26.395
  H      163.951    -117.027     -24.289
  H      165.454    -114.428     -24.902
  H      168.608    -122.510     -25.939
  H      165.769    -114.388     -22.432
  H      168.467    -122.547     -24.202
  H      164.060    -114.333     -22.851
  P      161.786    -115.653     -24.626
  C      159.505    -114.479     -24.822
  O      160.695    -114.857     -25.498
  O      161.974    -114.679     -23.363
  O      161.411    -117.041     -24.205
  H      161.224    -114.776     -22.745
  H      158.952    -113.772     -25.462
  H      159.745    -113.988     -23.882
  H      158.880    -115.355     -24.644
  H      166.317    -119.537     -19.388
  H      166.496    -117.977     -18.623
  H      167.463    -118.381     -20.020

 3  4  5  6  7  8  9  10  11  12  13  21  23  27  28  29  30  32 0
 6-311+G(2d,p)
 ****
 34  35 0
 6-311+G(2d,p)
 ****
 1  2  14  15  16  17  18  19  20  22  24  25  26 0
 3-21G
 ****
 31  33  36  37  38  39  40  41  42  43  44  45  46 0
 3-21G
 ****


