%nproc=1
%NoSave
%Mem=1900MB
#P OB98/GEN NMR

erre ene a

0 1
  C     -324.202     777.514     454.678
  O     -323.757     778.010     455.942
  P     -322.750     779.259     455.912
  C     -323.753     781.559     455.240
  O     -323.585     780.586     456.259
  C     -324.029     782.930     455.859
  O     -325.204     782.899     456.710
  C     -322.906     783.437     456.747
  O     -321.811     783.894     455.967
  C     -323.623     784.524     457.541
  O     -323.746     785.718     456.756
  C     -325.016     783.896     457.744
  N     -325.601     784.792     462.753
  C     -325.456     785.627     461.694
  N     -325.308     785.312     460.392
  C     -325.317     783.982     460.224
  C     -325.450     783.006     461.205
  C     -325.590     783.458     462.519
  N     -325.725     782.608     463.600
  N     -325.416     781.742     460.644
  C     -325.237     781.949     459.355
  N     -325.181     783.280     459.049
  O     -322.406     779.414     454.356
  O     -321.518     779.054     456.732
  H     -324.132     785.465     455.897
  H     -321.486     779.127     454.188
  H     -325.461     786.690     461.923
  H     -325.142     781.167     458.601
  H     -325.824     784.638     457.630
  H     -323.113     784.797     458.471
  H     -322.566     782.639     457.433
  H     -324.210     783.644     455.043
  H     -324.578     781.270     454.576
  H     -325.739     783.013     464.523
  H     -325.641     781.612     463.450
  H     -322.848     781.576     454.617
  P     -320.376     783.219     456.224
  C     -319.570     780.820     455.754
  O     -320.435     781.872     455.339
  O     -320.539     782.672     457.712
  O     -319.212     784.111     455.974
  H     -321.394     782.216     457.842
  H     -319.732     779.960     455.100
  H     -319.789     780.538     456.786
  H     -318.527     781.141     455.666
  H     -324.864     776.687     454.832
  H     -323.358     777.193     454.104
  H     -324.717     778.290     454.152

 3  4  5  6  7  8  9  10  11  12  22  25  29  30  31  32 0
 6-311+G(2d,p)
 ****
 33  36  37 0
 6-311+G(2d,p)
 ****
 1  2  13  14  15  16  17  18  19  20  21  23  24  26 0
 3-21G
 ****
 27  28  34  35  38  39  40  41  42  43  44  45  46  47  48 0
 3-21G
 ****


