%nproc=1
%NoSave
%Mem=1900MB
#P OB98/GEN NMR

erre ene a

0 1
  C      132.165     119.323     -77.497
  O      132.745     120.588     -77.840
  P      132.809     121.703     -76.690
  C      135.428     121.737     -76.708
  O      134.232     121.508     -75.978
  C      136.634     121.232     -75.911
  O      136.544     119.798     -75.715
  C      137.971     121.467     -76.592
  O      138.360     122.828     -76.512
  C      138.862     120.499     -75.822
  O      139.257     121.075     -74.567
  C      137.905     119.314     -75.579
  N      138.159     118.183     -76.464
  C      139.269     117.404     -76.152
  O      140.018     117.649     -75.207
  N      139.501     116.339     -76.977
  C      138.767     116.002     -78.079
  O      139.021     115.029     -78.776
  C      137.637     116.892     -78.387
  C      137.387     117.924     -77.579
  O      131.754     121.125     -75.638
  O      132.516     123.077     -77.194
  H      131.753     120.155     -75.596
  H      139.820     120.407     -74.123
  H      140.296     115.756     -76.761
  H      137.048     116.669     -79.268
  H      136.559     118.593     -77.792
  H      137.998     118.958     -74.544
  H      139.774     120.243     -76.368
  H      137.913     121.161     -77.645
  H      136.616     121.715     -74.926
  H      135.548     122.806     -76.898
  H      135.354     121.233     -77.675
  P      137.760     123.822     -77.623
  C      136.743     125.451     -75.848
  O      136.529     124.579     -76.936
  O      137.068     122.784     -78.627
  O      138.787     124.703     -78.258
  H      136.564     122.089     -78.169
  H      135.879     126.114     -75.754
  H      137.639     126.058     -75.998
  H      136.843     124.869     -74.926
  H      132.186     118.678     -78.350
  H      131.152     119.468     -77.184
  H      132.724     118.879     -76.700

 3  4  5  6  7  8  9  10  11  12  13  24  28  29  30  31  32 0
 6-311+G(2d,p)
 ****
 33  34 0
 6-311+G(2d,p)
 ****
 1  2  14  15  16  17  18  19  20  21  22  23  25  26  27 0
 3-21G
 ****
 35  36  37  38  39  40  41  42  43  44  45 0
 3-21G
 ****


