%nproc=1
%NoSave
%Mem=1900MB
#P OB98/GEN NMR

erre ene a

0 1
  C      756.731    -584.932     -91.796
  O      758.067    -584.582     -92.134
  P      758.996    -584.007     -90.962
  C      758.724    -581.869     -89.518
  O      758.597    -582.458     -90.804
  C      757.906    -580.579     -89.438
  O      756.538    -580.861     -89.807
  C      757.834    -579.962     -88.042
  O      759.000    -579.199     -87.755
  C      756.609    -579.075     -88.195
  O      756.977    -577.833     -88.826
  C      755.695    -579.909     -89.113
  N      751.042    -579.626     -87.132
  C      751.781    -578.674     -87.809
  N      751.174    -577.483     -87.999
  N      752.995    -578.864     -88.244
  C      753.454    -580.113     -88.009
  C      752.819    -581.157     -87.351
  C      751.491    -580.907     -86.832
  O      750.815    -581.701     -86.162
  N      753.599    -582.278     -87.325
  C      754.686    -581.940     -87.998
  N      754.660    -580.624     -88.409
  O      760.441    -583.946     -91.648
  O      759.012    -584.815     -89.706
  H      757.432    -578.065     -89.668
  H      761.132    -583.995     -90.964
  H      750.103    -579.433     -86.825
  H      755.519    -582.614     -88.211
  H      755.230    -579.269     -89.876
  H      756.159    -578.815     -87.224
  H      750.202    -577.312     -87.804
  H      757.655    -580.729     -87.278
  H      751.683    -576.768     -88.529
  H      758.322    -579.865     -90.160
  H      759.780    -581.629     -89.332
  H      758.396    -582.591     -88.760
  P      759.273    -578.913     -86.198
  C      757.969    -577.451     -84.497
  O      758.391    -577.636     -85.834
  O      760.783    -578.362     -86.185
  O      759.115    -580.102     -85.307
  H      761.204    -578.528     -85.324
  H      758.727    -577.781     -83.785
  H      757.041    -578.017     -84.329
  H      757.769    -576.383     -84.325
  H      756.227    -585.299     -92.666
  H      756.219    -584.069     -91.425
  H      756.741    -585.692     -91.043

 3  4  5  6  7  8  9  10  11  12  23  26  30  31  33  0
 6-311+G(2d,p)
 ****
 35  36  37  38 0
 6-311+G(2d,p)
 ****
 1  2  13  14  15  16  17  18  19  20  21  22  24  25  27  28  29 0
 3-21G
 ****
 32  34  39  40  41  42  43  44  45  46  47  48  49 0
 3-21G
 ****


