%nproc=1
%NoSave
%Mem=1900MB
#P OB98/GEN NMR

erre ene a

0 1
  C      271.939    -323.626    -164.155
  O      271.870    -322.219    -164.026
  P      272.005    -321.608    -162.546
  C      270.515    -321.702    -160.415
  O      270.606    -321.904    -161.823
  C      269.063    -321.481    -159.999
  O      268.593    -320.222    -160.504
  C      268.105    -322.529    -160.543
  O      268.194    -323.727    -159.793
  C      266.766    -321.814    -160.400
  O      266.214    -322.002    -159.089
  C      267.153    -320.331    -160.626
  N      266.685    -319.815    -161.899
  C      265.730    -318.793    -161.828
  O      265.329    -318.394    -160.731
  N      265.233    -318.271    -162.994
  C      265.644    -318.740    -164.135
  N      265.118    -318.183    -165.262
  C      266.630    -319.832    -164.253
  C      267.097    -320.320    -163.107
  O      271.966    -320.030    -162.805
  O      273.225    -322.034    -161.803
  H      266.038    -322.962    -159.007
  H      272.435    -319.550    -162.093
  H      266.943    -320.184    -165.227
  H      267.827    -321.126    -163.105
  H      266.730    -319.704    -159.827
  H      266.023    -322.180    -161.114
  H      268.306    -322.724    -161.602
  H      269.019    -321.457    -158.902
  H      264.439    -317.441    -165.150
  H      271.098    -320.818    -160.141
  H      265.392    -318.462    -166.194
  H      270.942    -322.571    -159.904
  P      268.134    -325.113    -160.597
  C      266.300    -326.364    -161.880
  O      266.608    -325.247    -161.062
  O      268.216    -326.189    -159.411
  O      269.172    -325.342    -161.643
  H      268.292    -327.088    -159.786
  H      265.214    -326.425    -161.995
  H      266.659    -327.287    -161.417
  H      266.749    -326.238    -162.868
  H      271.836    -323.895    -165.185
  H      271.150    -324.075    -163.588
  H      272.883    -323.972    -163.789

 3  4  5  6  7  8  9  10  11  12  13  21  23  27  28  29  30  32 0
 6-311+G(2d,p)
 ****
 34  35 0
 6-311+G(2d,p)
 ****
 1  2  14  15  16  17  18  19  20  22  24  25  26 0
 3-21G
 ****
 31  33  36  37  38  39  40  41  42  43  44  45  46 0
 3-21G
 ****


