%nproc=1
%NoSave
%Mem=1900MB
#P OB98/GEN NMR

erre ene a

0 1
  C     -896.006     874.083     408.116
  O     -894.596     874.233     408.033
  H     -896.236     873.315     408.869
  H     -896.416     873.757     407.153
  H     -896.476     875.023     408.420
  P     -894.066     875.268     406.934
  C     -893.746     875.195     404.353
  O     -894.336     874.602     405.498
  C     -893.836     874.270     403.156
  O     -893.036     873.077     403.350
  C     -895.256     873.804     402.827
  O     -895.956     874.764     402.048
  C     -894.976     872.514     402.054
  O     -894.626     872.801     400.688
  C     -893.776     871.940     402.821
  N     -894.396     867.064     404.028
  C     -894.126     867.655     402.811
  N     -894.016     866.835     401.735
  N     -893.966     868.946     402.638
  C     -894.146     869.651     403.776
  C     -894.416     869.202     405.046
  C     -894.526     867.769     405.227
  O     -894.696     867.177     406.292
  N     -894.516     870.227     405.952
  C     -894.326     871.309     405.210
  N     -894.106     871.012     403.891
  O     -892.476     875.180     407.080
  O     -894.546     876.675     407.087
  H     -893.826     873.354     400.667
  H     -892.086     876.075     406.954
  H     -894.466     866.066     404.099
  H     -894.326     872.333     405.596
  H     -893.096     871.399     402.157
  H     -895.856     871.879     402.017
  H     -894.406     865.896     401.755
  H     -895.806     873.557     403.742
  H     -893.906     867.274     400.837
  H     -893.416     874.796     402.290
  H     -892.696     875.399     404.575
  H     -894.236     876.142     404.146
  P     -897.556     874.811     402.171
  C     -899.556     873.499     401.205
  O     -898.156     873.582     401.334
  O     -897.926     876.104     401.273
  O     -898.066     874.969     403.574
  H     -898.176     876.850     401.859
  H     -899.811     872.636     400.626
  H     -899.922     874.377     400.715
  H     -900.000     873.421     402.176

 6  7  8  9  10  11  12  13  14  15  26  29  33  34 0
 6-311+G(2d,p)
 ****
 36  38  39  40  41 0
 6-311+G(2d,p)
 ****
 1  2  3  4  5  16  17  18  19  20  21  22  23  24  25 0
 3-21G
 ****
 27  28  30  31  32  35  37  42  43  44  45  46  47 0
 3-21G
 ****
 48  49 0
 3-21G
 ****


