%nproc=1
%NoSave
%Mem=1900MB
#P OB98/GEN NMR

erre ene a

0 1
  C     -588.001     -90.579      51.880
  O     -589.209     -90.272      51.203
  H     -587.206     -89.943      51.483
  H     -587.735     -91.629      51.715
  H     -588.109     -90.386      52.951
  P     -590.517     -91.086      51.655
  C     -589.352     -93.074      50.445
  O     -590.142     -92.643      51.548
  C     -589.454     -94.587      50.304
  O     -589.041     -95.223      51.532
  C     -590.863     -95.092      50.031
  O     -591.249     -94.924      48.684
  C     -590.740     -96.546      50.453
  O     -590.189     -97.355      49.402
  C     -589.761     -96.474      51.632
  N     -589.853     -98.882      56.138
  C     -588.997     -98.949      55.096
  N     -589.040     -98.265      53.928
  C     -590.078     -97.413      53.917
  C     -591.026     -97.227      54.911
  C     -590.890     -98.009      56.067
  N     -591.772     -97.953      57.122
  N     -591.960     -96.291      54.513
  C     -591.581     -95.908      53.313
  N     -590.445     -96.561      52.909
  O     -591.526     -90.851      50.435
  O     -591.104     -90.661      52.959
  H     -589.311     -96.975      49.194
  H     -592.163     -90.150      50.672
  H     -588.184     -99.662      55.200
  H     -592.092     -95.184      52.690
  H     -589.019     -97.278      51.606
  H     -591.713     -96.962      50.717
  H     -591.574     -94.589      50.704
  H     -588.764     -94.914      49.503
  H     -588.309     -92.791      50.614
  H     -589.709     -92.577      49.534
  H     -591.648     -98.592      57.890
  H     -592.608     -97.388      57.030
  P     -592.743     -94.408      48.388
  C     -593.567     -96.651      47.332
  O     -593.702     -95.700      48.383
  O     -592.699     -93.963      46.854
  O     -593.199     -93.303      49.282
  H     -593.281     -93.178      46.722
  H     -594.272     -97.443      47.475
  H     -592.575     -97.051      47.339
  H     -593.753     -96.173      46.393

 6  7  8  9  10  11  12  13  14  15  25  28  32  33  34  35 0
 6-311+G(2d,p)
 ****
 36  37  40 0
 6-311+G(2d,p)
 ****
 1  2  3  4  5  16  17  18  19  20  21  22  23  24 0
 3-21G
 ****
 26  27  29  30  31  38  39 41  42  43  44  45  46  47  48 0
 3-21G
 ****


