%nproc=1
%NoSave
%Mem=1900MB
#P OB98/GEN NMR

erre ene a

0 1
  C      268.204     388.495     976.629
  O      269.278     388.558     977.547
  H      267.958     387.442     976.443
  H      268.486     388.957     975.680
  H      267.321     388.991     977.042
  P      269.828     389.997     977.990
  C      271.082     390.205     975.716
  O      271.186     390.175     977.138
  C      272.308     390.866     975.114
  O      272.387     392.266     975.453
  C      273.648     390.285     975.577
  O      273.937     389.014     975.027
  C      274.590     391.361     975.077
  O      274.764     391.237     973.662
  C      273.798     392.649     975.444
  N      274.193     393.213     976.736
  C      275.315     394.049     976.739
  O      275.915     394.278     975.697
  N      275.742     394.575     977.938
  C      275.105     394.283     979.040
  N      275.575     394.841     980.187
  C      273.933     393.396     979.068
  C      273.538     392.892     977.905
  O      269.959     390.231     979.460
  O      268.860     391.041     977.253
  H      275.067     390.325     973.489
  H      269.149     391.950     977.506
  H      273.464     393.152     980.018
  H      272.675     392.219     977.864
  H      273.922     393.417     974.675
  H      275.583     391.313     975.531
  H      273.689     390.255     976.683
  H      272.221     390.805     974.016
  H      276.383     395.445     980.136
  H      270.164     390.751     975.460
  H      275.197     394.611     981.108
  H      270.999     389.186     975.335
  P      274.171     387.797     976.068
  C      276.681     388.496     976.214
  O      275.741     387.465     976.033
  O      273.478     386.555     975.335
  O      273.612     388.043     977.444
  H      272.574     386.398     975.691
  H      277.670     388.091     976.160
  H      276.533     388.949     977.172
  H      276.555     389.232     975.448

 6  7  8  9  10  11  12  13  14  15  16  26  30  31  32  33  35 0
 6-311+G(2d,p)
 ****
 37  38 0
 6-311+G(2d,p)
 ****
 1  2  3  4  5  17  18  19  20  21  22  23  24  25 0
 3-21G
 ****
 27  28  29  34  36  39  40  41  42  43  44  45  46 0
 3-21G
 ****


