%nproc=1
%NoSave
%Mem=1900MB
#P OB98/GEN NMR

erre ene a

0 1
  C     -902.056     181.433     124.016
  O     -903.304     181.081     124.630
  P     -904.605     180.885     123.700
  C     -905.263     178.416     124.270
  O     -905.567     179.798     124.388
  C     -906.319     177.580     124.994
  O     -906.082     177.583     126.420
  C     -907.748     178.092     124.825
  O     -908.279     177.758     123.551
  C     -908.457     177.377     125.979
  O     -908.813     176.038     125.618
  C     -907.363     177.385     127.069
  N     -907.607     178.382     128.104
  C     -906.976     178.178     129.318
  O     -906.295     177.192     129.577
  N     -907.191     179.146     130.268
  C     -908.011     180.234     130.141
  O     -908.180     181.051     131.036
  C     -908.717     180.350     128.858
  C     -908.495     179.431     127.915
  O     -904.011     180.061     122.460
  O     -905.263     182.139     123.238
  H     -909.524     176.103     124.952
  H     -904.536     180.245     121.662
  H     -906.727     179.030     131.156
  H     -909.400     181.178     128.724
  H     -909.001     179.499     126.955
  H     -907.306     176.389     127.537
  H     -909.379     177.897     126.275
  H     -907.782     179.169     124.988
  H     -906.232     176.540     124.638
  H     -904.284     178.216     124.715
  H     -905.217     178.150     123.205
  P     -908.809     178.979     122.650
  C     -906.544     179.104     121.337
  O     -907.944     178.909     121.298
  O     -908.208     180.228     123.460
  O     -910.287     178.989     122.493
  H     -907.353     180.024     123.869
  H     -906.112     178.721     122.263
  H     -906.320     180.175     121.246
  H     -906.097     178.577     120.492
  H     -901.301     181.524     124.769
  H     -902.162     182.366     123.503
  H     -901.775     180.672     123.318

 3  4  5  6  7  8  9  10  11  12  13  23  28  29  30  31  32 0
 6-311+G(2d,p)
 ****
 33  34 0
 6-311+G(2d,p)
 ****
 1  2  14  15  16  17  18  19  20  21  22  24  25  26 0
 3-21G
 ****
 27  35  36  37  38  39  40  41  42  43  44  45 0
 3-21G
 ****


