%nproc=1
%NoSave
%Mem=1900MB
#P OB98/GEN NMR

erre ene a

0 1
  C     -265.450      -1.724    -400.246
  O     -264.286      -1.331    -400.945
  H     -265.375      -2.792    -400.023
  H     -266.340      -1.552    -400.854
  H     -265.528      -1.175    -399.303
  P     -264.196       0.176    -401.491
  C     -261.724       0.213    -400.733
  O     -262.649       0.469    -401.783
  C     -261.101       1.522    -400.223
  O     -260.328       2.125    -401.306
  C     -262.135       2.566    -399.762
  O     -261.521       3.350    -398.734
  C     -262.314       3.384    -401.029
  O     -262.972       4.599    -400.764
  C     -260.868       3.451    -401.527
  N     -260.773       3.851    -402.919
  C     -260.339       5.163    -403.158
  O     -260.091       5.910    -402.219
  N     -260.252       5.600    -404.456
  C     -260.623       4.820    -405.427
  N     -260.514       5.323    -406.689
  C     -261.132       3.449    -405.213
  C     -261.178       3.035    -403.948
  O     -264.884       1.209    -400.663
  O     -264.829       0.090    -402.959
  H     -262.559       5.062    -399.998
  H     -265.724       0.472    -402.957
  H     -261.438       2.852    -406.056
  H     -261.541       2.040    -403.694
  H     -260.275       4.152    -400.920
  H     -262.941       2.842    -401.751
  H     -263.063       2.113    -399.397
  H     -260.390       1.291    -399.419
  H     -260.169       6.267    -406.786
  H     -260.945      -0.442    -401.131
  H     -260.786       4.814    -407.515
  H     -262.228      -0.299    -399.903
  P     -261.789       3.106    -397.174
  C     -259.337       2.921    -396.392
  O     -260.545       3.663    -396.324
  O     -262.172       1.705    -396.834
  O     -262.978       4.123    -396.799
  H     -263.512       3.729    -396.082
  H     -258.593       3.394    -395.786
  H     -258.999       2.882    -397.406
  H     -259.508       1.927    -396.035

 6  7  8  9  10  11  12  13  14  15  16  26  30  31  32  33  35 0
 6-311+G(2d,p)
 ****
 37  38 0
 6-311+G(2d,p)
 ****
 1  2  3  4  5  17  18  19  20  21  22  23  24  25 0
 3-21G
 ****
 27  28  29  34  36  39  40  41  42  43  44  45  46 0
 3-21G
 ****


