%nproc=1
%NoSave
%Mem=1900MB
#P OB98/GEN NMR

erre ene a

0 1
  C      720.917    -244.862     234.966
  O      721.710    -245.254     236.071
  H      721.420    -244.070     234.404
  H      720.771    -245.729     234.313
  H      719.939    -244.517     235.315
  P      722.074    -244.116     237.144
  C      724.179    -243.490     235.761
  O      722.987    -243.028     236.384
  C      724.966    -242.294     235.201
  O      724.156    -241.645     234.189
  C      725.365    -241.251     236.248
  O      726.787    -241.071     236.255
  C      724.730    -239.959     235.744
  O      725.573    -238.807     235.904
  C      724.446    -240.250     234.273
  N      723.107    -235.650     232.517
  C      724.308    -236.278     232.565
  N      724.580    -237.537     232.942
  C      723.451    -238.184     233.281
  C      722.162    -237.682     233.272
  C      722.017    -236.349     232.883
  N      720.799    -235.693     232.886
  N      721.259    -238.650     233.694
  C      721.996    -239.693     234.003
  N      723.337    -239.453     233.792
  O      723.116    -244.846     238.129
  O      720.913    -243.551     237.892
  H      725.113    -238.062     235.471
  H      722.857    -244.685     239.052
  H      725.167    -235.673     232.250
  H      721.631    -240.622     234.423
  H      725.315    -240.045     233.628
  H      723.808    -239.775     236.299
  H      725.010    -241.492     237.253
  H      725.853    -242.686     234.688
  H      723.929    -244.166     234.937
  H      720.799    -234.697     232.712
  H      719.990    -236.171     233.262
  H      724.770    -244.033     236.498
  P      727.605    -241.857     237.395
  C      728.016    -239.716     238.829
  O      727.448    -241.019     238.764
  O      729.134    -241.622     236.990
  O      727.272    -243.308     237.490
  H      729.692    -242.341     237.313
  H      727.829    -239.293     239.794
  H      727.575    -239.097     238.076
  H      729.072    -239.779     238.666

 6  7  8  9  10  11  12  13  14  15  25  28  32  33  34  35 0
 6-311+G(2d,p)
 ****
 36  39  40 0
 6-311+G(2d,p)
 ****
 1  2  3  4  5  16  17  18  19  20  21  22  23  24 0
 3-21G
 ****
 26  27  29  30  31  37  38  41  42  43  44  45  46  47  48 0
 3-21G
 ****


