%nproc=1
%NoSave
%Mem=1900MB
#P OB98/GEN NMR

erre ene a

0 1
  C      256.282    -620.738      33.820
  O      257.643    -620.815      34.254
  P      258.578    -619.522      34.080
  C      261.094    -618.994      33.886
  O      260.105    -620.011      34.026
  C      262.501    -619.597      33.888
  O      262.777    -620.315      35.104
  C      262.721    -620.600      32.754
  O      262.858    -619.942      31.508
  C      263.956    -621.340      33.254
  O      265.153    -620.601      32.937
  C      263.738    -621.349      34.784
  N      263.310    -622.647      35.290
  C      264.223    -623.704      35.136
  O      265.294    -623.512      34.577
  N      263.888    -624.939      35.632
  C      262.738    -625.107      36.203
  N      262.456    -626.363      36.670
  C      261.728    -624.040      36.379
  C      262.084    -622.842      35.890
  O      258.302    -618.396      35.017
  O      258.310    -619.089      32.560
  H      265.044    -620.300      32.004
  H      258.418    -618.111      32.486
  H      260.792    -624.226      36.867
  H      261.404    -621.989      35.960
  H      264.664    -621.075      35.298
  H      264.055    -622.326      32.798
  H      261.865    -621.297      32.715
  H      263.218    -618.762      33.783
  H      263.148    -627.083      36.534
  H      261.000    -618.280      34.713
  H      261.613    -626.585      37.176
  H      260.897    -618.437      32.958
  P      261.800    -620.290      30.357
  C      260.189    -618.761      29.016
  O      261.475    -618.935      29.572
  O      260.459    -620.569      31.189
  O      262.155    -621.468      29.505
  H      259.924    -621.254      30.742
  H      260.034    -617.711      28.807
  H      259.407    -619.104      29.719
  H      260.098    -619.325      28.086
  H      255.796    -621.674      34.003
  H      256.253    -620.520      32.773
  H      255.779    -619.963      34.360

 3  4  5  6  7  8  9  10  11  12  13  23  27  28  29  30  32 0
 6-311+G(2d,p)
 ****
 34  35 0
 6-311+G(2d,p)
 ****
 1  2  14  15  16  17  18  19  20  21  22  24  25  26 0
 3-21G
 ****
 31  33  36  37  38  39  40  41  42  43  44  45  46 0
 3-21G
 ****


