%nproc=1
%NoSave
%Mem=1900MB
#P OB98/GEN NMR

erre ene a

0 1
  C      272.202     301.121      52.254
  O      271.870     302.485      52.455
  P      270.435     302.834      53.079
  C      269.120     302.103      55.193
  O      270.147     301.789      54.263
  C      268.176     300.914      55.385
  O      267.432     300.682      54.159
  C      268.896     299.607      55.732
  O      268.070     298.825      56.608
  C      268.966     298.878      54.406
  O      269.105     297.469      54.590
  C      267.640     299.310      53.774
  N      267.923     296.041      49.932
  C      267.677     295.802      51.268
  N      267.577     294.509      51.641
  N      267.533     296.747      52.162
  C      267.666     297.993      51.643
  C      267.894     298.358      50.334
  C      268.063     297.297      49.362
  O      268.311     297.441      48.169
  N      267.929     299.717      50.190
  C      267.764     300.186      51.414
  N      267.639     299.176      52.333
  O      269.425     302.379      51.922
  O      270.240     304.270      53.426
  H      269.920     297.334      55.116
  H      269.070     303.166      51.466
  H      268.040     295.275      49.288
  H      267.755     301.231      51.687
  H      266.801     298.722      54.168
  H      269.823     299.235      53.827
  H      267.745     293.731      51.017
  H      269.884     299.743      56.189
  H      267.444     294.303      52.626
  H      267.443     301.169      56.159
  H      268.550     302.955      54.821
  H      269.568     302.385      56.155
  P      268.842     297.812      57.588
  C      270.794     298.162      59.266
  O      270.135     298.600      58.097
  O      269.431     296.714      56.583
  O      267.981     297.211      58.649
  H      269.561     295.865      57.050
  H      271.807     297.842      59.008
  H      270.272     297.331      59.756
  H      270.855     298.997      59.975
  H      273.184     301.051      51.835
  H      271.495     300.677      51.584
  H      272.177     300.606      53.192

 3  4  5  6  7  8  9  10  11  12  23  26  30  31 0
 6-311+G(2d,p)
 ****
 33  35  36  37  38 0
 6-311+G(2d,p)
 ****
 1  2  13  14  15  16  17  18  19  20  21  22  24  25 0
 3-21G
 ****
 27  28  29  32  34  39  40  41  42  43  44  45  46  47  48  49 0
 3-21G
 ****


