%nproc=1
%NoSave
%Mem=1900MB
#P OB98/GEN NMR

erre ene a

0 1
  C     1467.813     339.273     150.534
  O     1468.328     340.165     151.502
  P     1467.383     341.362     151.976
  C     1469.071     341.543     153.964
  O     1468.210     342.211     153.071
  C     1470.134     342.512     154.489
  O     1469.515     343.562     155.250
  C     1471.170     341.861     155.399
  O     1472.140     341.147     154.681
  C     1471.728     343.080     156.136
  O     1472.752     343.727     155.348
  C     1470.480     343.984     156.257
  N     1469.902     343.945     157.612
  C     1470.690     344.537     158.600
  O     1471.817     345.033     158.386
  N     1470.162     344.502     159.855
  C     1468.972     343.918     160.236
  O     1468.602     343.874     161.399
  C     1468.209     343.303     159.129
  C     1468.714     343.342     157.901
  O     1466.238     340.636     152.868
  O     1466.790     342.179     150.869
  H     1473.589     343.212     155.509
  H     1465.394     341.079     152.716
  H     1470.697     344.946     160.600
  H     1467.274     342.828     159.395
  H     1468.174     342.882     157.070
  H     1470.749     345.019     156.008
  H     1472.186     342.815     157.091
  H     1470.651     341.212     156.116
  H     1470.629     342.981     153.623
  H     1469.546     340.716     153.448
  H     1468.485     341.125     154.802
  P     1472.736     339.824     155.349
  C     1473.663     338.983     153.030
  O     1473.925     339.356     154.377
  O     1471.537     338.780     155.050
  O     1473.068     339.985     156.795
  H     1471.091     338.973     154.208
  H     1472.870     339.583     152.614
  H     1473.390     337.924     153.012
  H     1474.564     339.133     152.455
  H     1468.546     338.526     150.311
  H     1467.572     339.814     149.643
  H     1466.931     338.803     150.915

 3  4  5  6  7  8  9  10  11  12  13  23  28  29  30  31  32 0
 6-311+G(2d,p)
 ****
 33  34 0
 6-311+G(2d,p)
 ****
 1  2  14  15  16  17  18  19  20  21  22  24  25  26 0
 3-21G
 ****
 27  35  36  37  38  39  40  41  42  43  44  45 0
 3-21G
 ****


