%nproc=1
%NoSave
%Mem=1900MB
#P OB98/GEN NMR

erre ene a

0 1
  C      -54.920    -891.820     257.809
  O      -53.621    -892.130     258.298
  P      -53.339    -891.860     259.868
  C      -53.319    -894.330     260.656
  O      -52.579    -893.130     260.458
  C      -52.358    -895.530     260.798
  O      -51.719    -895.840     259.531
  C      -51.226    -895.300     261.767
  O      -51.626    -895.470     263.117
  C      -50.246    -896.400     261.361
  O      -50.637    -897.640     261.992
  C      -50.442    -896.480     259.840
  N      -46.510    -897.060     256.697
  C      -47.329    -898.010     257.275
  N      -47.097    -899.300     256.933
  N      -48.308    -897.710     258.105
  C      -48.453    -896.390     258.315
  C      -47.689    -895.360     257.819
  C      -46.589    -895.680     256.945
  O      -45.812    -894.880     256.418
  N      -48.139    -894.130     258.254
  C      -49.184    -894.420     259.011
  N      -49.410    -895.790     259.084
  O      -54.807    -891.960     260.515
  O      -52.701    -890.520     260.134
  H      -50.330    -898.370     261.410
  H      -54.854    -891.410     261.326
  H      -45.775    -897.340     256.076
  H      -49.819    -893.700     259.500
  H      -50.512    -897.500     259.476
  H      -49.210    -896.200     261.685
  H      -46.400    -899.580     256.236
  H      -50.758    -894.320     261.619
  H      -47.728    -900.000     257.310
  H      -52.960    -896.400     261.100
  H      -53.969    -894.510     259.787
  H      -53.949    -894.230     261.529
  P      -51.006    -894.460     264.222
  C      -52.551    -892.450     263.663
  O      -52.206    -893.450     264.594
  O      -49.984    -893.570     263.361
  O      -50.343    -895.150     265.348
  H      -49.256    -893.270     263.935
  H      -52.576    -892.850     262.644
  H      -51.812    -891.630     263.703
  H      -53.539    -892.060     263.922
  H      -54.971    -892.044     256.764
  H      -55.119    -890.780     257.961
  H      -55.647    -892.403     258.335

 3  4  5  6  7  8  9  10  11  12  23  26  30  31  33  0
 6-311+G(2d,p)
 ****
 35  36  37  38 0
 6-311+G(2d,p)
 ****
 1  2  13  14  15  16  17  18  19  20  21  22  24  25  27  28  29 0
 3-21G
 ****
 32  34  39  40  41  42  43  44  45  46  47  48  49 0
 3-21G
 ****


