%nproc=1
%NoSave
%Mem=1900MB
#P OB98/GEN NMR

erre ene a

0 1
  C     -812.344      46.192    -899.430
  O     -812.367      45.773    -898.080
  H     -813.334      46.039    -899.870
  H     -811.627      45.602    -900.000
  H     -812.087      47.253    -899.510
  P     -811.067      46.056    -897.210
  C     -812.215      46.794    -895.000
  O     -811.457      47.187    -896.130
  C     -813.665      47.305    -895.130
  O     -814.293      46.689    -896.300
  C     -814.541      46.963    -893.910
  O     -815.426      48.069    -893.650
  C     -815.356      45.768    -894.370
  O     -816.591      45.631    -893.680
  C     -815.499      46.066    -895.880
  N     -815.759      44.837    -896.640
  C     -817.060      44.335    -896.600
  O     -817.933      44.923    -895.940
  N     -817.343      43.166    -897.260
  C     -816.378      42.507    -897.810
  N     -816.724      41.327    -898.420
  C     -814.971      42.948    -897.820
  C     -814.733      44.105    -897.230
  O     -810.089      46.827    -898.210
  O     -810.407      44.846    -896.610
  H     -816.391      45.313    -892.760
  H     -809.158      46.651    -898.020
  H     -814.203      42.342    -898.290
  H     -813.729      44.522    -897.180
  H     -816.308      46.773    -896.060
  H     -814.778      44.855    -894.220
  H     -813.953      46.747    -893.010
  H     -813.643      48.388    -895.300
  H     -817.691      41.038    -898.390
  H     -811.777      47.227    -894.120
  H     -816.040      40.709    -898.860
  H     -812.204      45.702    -894.910
  P     -814.913      49.166    -892.590
  C     -815.449      51.454    -893.760
  O     -814.444      50.477    -893.420
  O     -813.523      48.549    -892.060
  O     -815.883      49.403    -891.480
  H     -813.646      48.237    -891.130
  H     -814.996      52.257    -894.303
  H     -815.894      51.835    -892.864
  H     -816.202      50.995    -894.365

 6  7  8  9  10  11  12  13  14  15  16  26  30  31  32  33  35 0
 6-311+G(2d,p)
 ****
 37  38 0
 6-311+G(2d,p)
 ****
 1  2  3  4  5  17  18  19  20  21  22  23  24  25 0
 3-21G
 ****
 27  28  29  34  36  39  40  41  42  43  44  45  46 0
 3-21G
 ****


