%nproc=1
%NoSave
%Mem=1900MB
#P OB98/GEN NMR

erre ene a

0 1
  C      206.901    -178.451      35.647
  O      205.974    -179.294      36.298
  H      206.890    -178.677      34.578
  H      207.906    -178.637      36.033
  H      206.642    -177.398      35.781
  P      205.576    -178.979      37.818
  C      206.450    -181.371      38.222
  O      206.363    -180.046      38.724
  C      207.449    -182.197      39.037
  O      207.168    -182.012      40.455
  C      207.392    -183.707      38.752
  O      208.709    -184.231      38.947
  C      206.463    -184.192      39.848
  O      206.568    -185.585      40.036
  C      206.918    -183.314      41.018
  N      205.936    -183.271      42.099
  C      206.083    -184.211      43.109
  O      206.964    -185.072      43.110
  N      205.154    -184.165      44.113
  C      204.080    -183.327      44.167
  O      203.258    -183.350      45.075
  C      203.950    -182.381      43.045
  C      204.873    -182.393      42.079
  O      204.114    -178.884      38.096
  O      206.337    -177.611      38.151
  H      206.000    -185.871      40.785
  H      205.832    -177.098      38.809
  H      205.254    -184.833      44.860
  H      203.102    -181.708      43.053
  H      204.805    -181.709      41.242
  H      207.864    -183.687      41.436
  H      205.420    -183.976      39.594
  H      207.030    -183.941      37.749
  H      208.457    -181.801      38.861
  H      206.776    -181.318      37.178
  H      205.461    -181.842      38.262
  P      209.606    -184.762      37.728
  C      209.511    -187.197      38.560
  O      209.267    -186.311      37.472
  O      211.065    -184.470      37.867
  O      209.005    -184.034      36.433
  H      209.703    -183.931      35.760
  H      209.250    -188.194      38.273
  H      208.919    -186.901      39.401
  H      210.548    -187.162      38.823

 6  7  8  9  10  11  12  13  14  15  16  26  31  32  33  34  35 0
 6-311+G(2d,p)
 ****
 36  37 0
 6-311+G(2d,p)
 ****
 1  2  3  4  5  17  18  19  20  21  22  23  24  25 0
 3-21G
 ****
 27  28  29  30  38  39  40  41  42  43  44  45 0
 3-21G
 ****


