%nproc=1
%NoSave
%Mem=1900MB
#P OB98/GEN NMR

erre ene a

0 1
  C     -397.594     387.332     162.341
  O     -397.806     388.129     161.191
  H     -398.326     386.517     162.339
  H     -397.725     387.919     163.253
  H     -396.589     386.899     162.317
  P     -397.030     389.534     161.092
  C     -398.945     390.843     162.233
  O     -397.585     390.414     162.318
  C     -399.178     392.104     163.069
  O     -398.595     391.942     164.382
  C     -398.527     393.355     162.491
  O     -399.119     393.815     161.300
  C     -398.456     394.273     163.702
  O     -399.645     395.028     163.916
  C     -398.268     393.262     164.863
  N     -396.916     393.313     165.419
  C     -396.710     394.244     166.433
  O     -397.590     395.008     166.840
  N     -395.442     394.302     166.941
  C     -394.372     393.578     166.505
  O     -393.242     393.710     166.976
  C     -394.642     392.629     165.413
  C     -395.880     392.544     164.924
  O     -397.101     390.228     159.763
  O     -395.538     389.174     161.553
  H     -399.478     395.611     164.685
  H     -394.905     389.886     161.286
  H     -395.277     394.965     167.682
  H     -393.810     392.037     165.038
  H     -396.106     391.845     164.117
  H     -398.970     393.482     165.678
  H     -397.634     394.989     163.615
  H     -397.488     393.106     162.240
  H     -400.258     392.245     163.192
  H     -399.571     390.032     162.622
  H     -399.209     391.027     161.184
  P     -398.276     394.381     160.067
  C     -398.239     396.947     160.496
  O     -397.518     395.718     160.539
  O     -398.947     394.380     158.727
  O     -397.063     393.314     159.995
  H     -396.822     393.211     159.054
  H     -397.609     397.742     160.837
  H     -399.100     396.878     161.128
  H     -398.549     397.144     159.491

 6  7  8  9  10  11  12  13  14  15  16  26  31  32  33  34  35 0
 6-311+G(2d,p)
 ****
 36  37 0
 6-311+G(2d,p)
 ****
 1  2  3  4  5  17  18  19  20  21  22  23  24  25 0
 3-21G
 ****
 27  28  29  30  38  39  40  41  42  43  44  45 0
 3-21G
 ****


