%nproc=1
%NoSave
%Mem=1900MB
#P OB98/GEN NMR

erre ene a

0 1
  C      -32.127      91.794     -58.826
  O      -32.853      92.088     -60.000
  H      -31.917      92.729     -58.300
  H      -31.176      91.323     -59.085
  H      -32.697      91.141     -58.161
  P      -33.533      90.887     -60.815
  C      -31.465      90.452     -62.297
  O      -32.330      89.939     -61.293
  C      -30.777      89.303     -63.034
  O      -30.105      89.852     -64.210
  C      -29.713      88.576     -62.185
  O      -29.706      87.191     -62.551
  C      -28.440      89.247     -62.659
  O      -27.302      88.474     -62.374
  C      -28.735      89.419     -64.147
  N      -27.819      90.372     -64.767
  C      -26.627      89.862     -65.269
  O      -26.312      88.676     -65.204
  N      -25.757      90.780     -65.789
  C      -25.910      92.134     -65.756
  O      -25.060      92.913     -66.166
  C      -27.168      92.619     -65.166
  C      -28.054      91.730     -64.712
  O      -34.480      91.285     -61.897
  O      -34.236      89.993     -59.688
  H      -26.502      89.030     -62.420
  H      -34.939      89.442     -60.082
  H      -24.891      90.423     -66.167
  H      -27.314      93.690     -65.109
  H      -28.982      92.051     -64.254
  H      -28.665      88.459     -64.674
  H      -28.320      90.217     -62.168
  H      -29.880      88.679     -61.110
  H      -31.538      88.602     -63.399
  H      -30.715      91.086     -61.812
  H      -32.044      91.059     -63.001
  P      -30.327      86.060     -61.595
  C      -28.212      84.675     -61.147
  O      -29.213      85.512     -60.575
  O      -31.067      84.983     -62.322
  O      -31.335      86.863     -60.642
  H      -32.178      86.375     -60.585
  H      -27.526      84.368     -60.386
  H      -27.685      85.216     -61.905
  H      -28.673      83.812     -61.580

 6  7  8  9  10  11  12  13  14  15  16  26  31  32  33  34  35 0
 6-311+G(2d,p)
 ****
 36  37 0
 6-311+G(2d,p)
 ****
 1  2  3  4  5  17  18  19  20  21  22  23  24  25 0
 3-21G
 ****
 27  28  29  30  38  39  40  41  42  43  44  45 0
 3-21G
 ****


