%nproc=1
%NoSave
%Mem=1900MB
#P OB98/GEN NMR

erre ene a

0 1
  C      127.890     -76.657       0.349
  O      127.654     -75.495      -0.455
  P      126.752     -74.332       0.180
  C      125.440     -72.251      -0.693
  O      126.150     -73.444      -1.014
  C      125.549     -71.245      -1.841
  O      126.886     -70.713      -1.935
  C      125.265     -71.854      -3.204
  O      123.875     -72.006      -3.400
  C      125.917     -70.842      -4.145
  O      124.992     -69.812      -4.534
  C      127.068     -70.262      -3.291
  N      128.382     -70.620      -3.802
  C      129.266     -69.561      -4.010
  O      128.917     -68.400      -3.783
  N      130.522     -69.838      -4.491
  C      130.850     -71.069      -4.770
  N      132.107     -71.282      -5.249
  C      129.930     -72.212      -4.589
  C      128.727     -71.917      -4.109
  O      127.827     -73.359       0.856
  O      125.743     -74.822       1.169
  H      124.205     -70.278      -4.867
  H      127.450     -72.946       1.655
  H      130.243     -73.217      -4.844
  H      127.986     -72.697      -3.950
  H      127.003     -69.165      -3.268
  H      126.256     -71.323      -5.073
  H      125.775     -72.827      -3.298
  H      124.855     -70.415      -1.648
  H      132.707     -70.477      -5.360
  H      125.832     -71.814       0.229
  H      132.462     -72.197      -5.502
  H      124.387     -72.512      -0.495
  P      123.331     -73.446      -3.827
  C      121.301     -74.866      -3.133
  O      121.877     -73.568      -3.155
  O      124.204     -74.428      -2.903
  O      123.426     -73.818      -5.274
  H      124.034     -75.360      -3.141
  H      120.421     -74.844      -2.470
  H      122.016     -75.587      -2.745
  H      120.980     -75.152      -4.135
  H      128.502     -77.347      -0.193
  H      126.956     -77.120       0.589
  H      128.389     -76.371       1.252

 3  4  5  6  7  8  9  10  11  12  13  21  23  27  28  29  30  32 0
 6-311+G(2d,p)
 ****
 34  35 0
 6-311+G(2d,p)
 ****
 1  2  14  15  16  17  18  19  20  22  24  25  26 0
 3-21G
 ****
 31  33  36  37  38  39  40  41  42  43  44  45  46 0
 3-21G
 ****


