%nproc=1
%NoSave
%Mem=1900MB
#P OB98/GEN NMR

erre ene a

0 1
  C     -777.014     249.595    -157.206
  O     -776.621     250.946    -157.393
  H     -777.706     249.318    -158.007
  H     -777.522     249.479    -156.244
  H     -776.138     248.939    -157.245
  P     -775.684     251.581    -156.246
  C     -777.146     253.731    -155.981
  O     -776.696     252.509    -155.405
  C     -777.965     254.514    -154.960
  O     -779.235     253.863    -154.721
  C     -777.315     254.648    -153.590
  O     -776.292     255.631    -153.541
  C     -778.524     255.061    -152.762
  O     -778.845     256.433    -153.030
  C     -779.593     254.094    -153.331
  N     -779.694     252.829    -152.596
  C     -780.911     252.550    -151.979
  O     -781.864     253.347    -152.055
  N     -781.045     251.395    -151.247
  C     -780.046     250.576    -151.165
  N     -780.229     249.438    -150.412
  C     -778.735     250.821    -151.811
  C     -778.637     251.951    -152.498
  O     -774.809     252.658    -157.043
  O     -774.896     250.614    -155.431
  H     -779.401     256.734    -152.288
  H     -774.295     253.216    -156.406
  H     -777.927     250.110    -151.696
  H     -777.701     252.202    -153.005
  H     -780.586     254.578    -153.333
  H     -778.354     254.967    -151.690
  H     -776.949     253.677    -153.224
  H     -778.187     255.497    -155.394
  H     -781.105     249.328    -149.946
  H     -777.759     253.498    -156.862
  H     -779.469     248.818    -150.174
  H     -776.283     254.336    -156.294
  P     -775.416     255.719    -152.199
  C     -775.823     258.257    -151.782
  O     -776.011     256.925    -151.331
  O     -774.012     256.290    -152.715
  O     -775.257     254.413    -151.467
  H     -773.265     255.920    -152.195
  H     -776.279     258.935    -151.091
  H     -776.272     258.374    -152.746
  H     -774.776     258.466    -151.849

 6  7  8  9  10  11  12  13  14  15  16  26  30  31  32  33  35 0
 6-311+G(2d,p)
 ****
 37  38 0
 6-311+G(2d,p)
 ****
 1  2  3  4  5  17  18  19  20  21  22  23  24  25 0
 3-21G
 ****
 27  28  29  34  36  39  40  41  42  43  44  45  46 0
 3-21G
 ****


