%nproc=1
%NoSave
%Mem=1900MB
#P OB98/GEN NMR

erre ene a

0 1
  C       10.644    -551.174    -966.854
  O       10.138    -551.154    -965.535
  H        9.915    -550.701    -967.520
  H       10.794    -552.208    -967.180
  H       11.588    -550.628    -966.916
  P       11.098    -551.724    -964.383
  C       10.496    -549.821    -962.730
  O       11.520    -550.462    -963.476
  C       11.105    -548.815    -961.747
  O       12.102    -549.498    -960.924
  C       11.803    -547.618    -962.418
  O       11.592    -546.465    -961.592
  C       13.269    -547.996    -962.340
  O       14.137    -546.867    -962.443
  C       13.303    -548.692    -960.980
  N       18.246    -548.490    -960.095
  C       17.310    -547.484    -960.157
  N       17.750    -546.226    -959.947
  N       16.043    -547.689    -960.394
  C       15.732    -549.005    -960.554
  C       16.569    -550.088    -960.522
  C       17.978    -549.847    -960.280
  O       18.860    -550.691    -960.236
  N       15.875    -551.251    -960.746
  C       14.624    -550.862    -960.917
  N       14.485    -549.510    -960.808
  O       12.437    -552.079    -965.184
  O       10.568    -552.901    -963.631
  H       13.857    -546.215    -961.767
  H       12.431    -553.015    -965.456
  H       19.213    -548.279    -959.920
  H       13.785    -551.520    -961.123
  H       13.276    -547.985    -960.148
  H       13.526    -548.699    -963.146
  H       18.704    -545.992    -959.715
  H       11.462    -547.410    -963.438
  H       17.062    -545.473    -959.945
  H       10.315    -548.479    -961.066
  H        9.939    -550.575    -962.165
  H        9.810    -549.308    -963.412
  P       11.490    -545.036    -962.313
  C        8.892    -545.288    -962.333
  O       10.073    -544.960    -963.065
  O       12.527    -545.178    -963.525
  O       11.814    -543.876    -961.431
  H       12.867    -544.294    -963.764
  H        8.038    -545.189    -962.970
  H        8.793    -544.625    -961.499
  H        8.959    -546.296    -961.981

 6  7  8  9  10  11  12  13  14  15  26  29  33  34 0
 6-311+G(2d,p)
 ****
 36  38  39  40  41 0
 6-311+G(2d,p)
 ****
 1  2  3  4  5  16  17  18  19  20  21  22  23  24  25 0
 3-21G
 ****
 27  28  30  31  32  35  37  42  43  44  45  46  47 0
 3-21G
 ****
 48  49 0
 3-21G
 ****


