%nproc=1
%NoSave
%Mem=1900MB
#P OB98/GEN NMR

erre ene a

0 1
  C      455.948     483.267     150.033
  O      456.719     483.268     148.852
  H      456.167     484.169     150.600
  H      456.218     482.394     150.641
  H      454.877     483.238     149.799
  P      456.288     482.258     147.681
  C      458.076     480.380     147.636
  O      456.810     480.797     148.115
  C      458.287     478.884     147.918
  O      458.600     478.723     149.329
  C      457.056     478.014     147.607
  O      457.493     476.751     147.093
  C      456.461     477.770     148.997
  O      455.654     476.599     149.041
  C      457.733     477.687     149.841
  N      456.135     475.247     153.924
  C      456.506     474.775     152.679
  N      456.389     473.435     152.474
  N      456.972     475.536     151.721
  C      457.053     476.846     152.074
  C      456.702     477.444     153.256
  C      456.185     476.583     154.303
  O      455.803     476.959     155.420
  N      456.882     478.799     153.194
  C      457.313     479.025     151.976
  N      457.438     477.861     151.248
  O      457.263     482.665     146.485
  O      454.849     482.325     147.276
  H      455.335     476.476     149.961
  H      456.819     483.306     145.894
  H      455.771     474.612     154.621
  H      457.531     479.999     151.549
  H      458.247     476.721     149.730
  H      455.836     478.632     149.291
  H      456.084     472.778     153.164
  H      456.345     478.464     146.916
  H      456.710     473.075     151.591
  H      459.155     478.540     147.347
  H      458.864     480.948     148.140
  H      458.144     480.571     146.561
  P      457.324     476.478     145.524
  C      455.442     474.695     145.774
  O      455.828     475.966     145.261
  O      458.212     475.168     145.273
  O      457.772     477.612     144.657
  H      458.625     475.212     144.389
  H      454.422     474.501     145.516
  H      455.547     474.693     146.839
  H      456.067     473.936     145.353

 6  7  8  9  10  11  12  13  14  15  26  29  33  34 0
 6-311+G(2d,p)
 ****
 36  38  39  40  41 0
 6-311+G(2d,p)
 ****
 1  2  3  4  5  16  17  18  19  20  21  22  23  24  25 0
 3-21G
 ****
 27  28  30  31  32  35  37  42  43  44  45  46  47 0
 3-21G
 ****
 48  49 0
 3-21G
 ****


