%nproc=1
%NoSave
%Mem=1900MB
#P OB98/GEN NMR

erre ene a

0 1
  C      253.978     498.867     276.349
  O      253.208     498.077     275.435
  P      253.439     498.140     273.847
  C      252.105     496.036     273.192
  O      253.390     496.649     273.258
  C      252.160     494.678     272.486
  O      252.623     494.827     271.129
  C      253.091     493.661     273.138
  O      252.477     493.082     274.274
  C      253.343     492.703     271.979
  O      252.252     491.777     271.845
  C      253.388     493.656     270.782
  N      257.304     492.562     267.678
  C      256.069     492.026     267.799
  N      255.083     492.371     268.654
  C      255.465     493.399     269.428
  C      256.694     494.045     269.423
  C      257.646     493.585     268.496
  N      258.906     494.121     268.388
  N      256.727     495.037     270.378
  C      255.532     495.006     270.939
  N      254.738     494.033     270.400
  O      254.641     498.923     273.433
  O      252.101     498.811     273.270
  H      252.079     491.400     272.726
  H      252.305     499.282     272.440
  H      255.844     491.210     267.116
  H      255.201     495.664     271.730
  H      252.907     493.220     269.900
  H      254.258     492.112     272.113
  H      254.032     494.145     273.422
  H      251.136     494.284     272.438
  H      251.431     496.707     272.644
  H      259.541     493.713     267.721
  H      259.185     494.852     269.023
  H      251.725     495.910     274.213
  P      253.230     493.090     275.688
  C      251.249     494.092     276.973
  O      252.591     494.276     276.557
  O      254.722     493.081     275.624
  O      252.672     491.778     276.422
  H      253.355     491.436     277.031
  H      250.577     494.336     276.143
  H      251.047     494.771     277.807
  H      251.074     493.067     277.299
  H      253.658     498.668     277.350
  H      253.837     499.905     276.130
  H      255.014     498.619     276.250

 3  4  5  6  7  8  9  10  11  12  22  25  29  30  31  32 0
 6-311+G(2d,p)
 ****
 33  36  37 0
 6-311+G(2d,p)
 ****
 1  2  13  14  15  16  17  18  19  20  21  23  24  26 0
 3-21G
 ****
 27  28  34  35  38  39  40  41  42  43  44  45  46  47  48 0
 3-21G
 ****


