%nproc=1
%NoSave
%Mem=1900MB
#P OB98/GEN NMR

erre ene a

0 1
  C      -55.606     235.863      24.397
  O      -56.227     236.865      23.620
  H      -55.425     236.262      25.399
  H      -54.647     235.582      23.956
  H      -56.249     234.984      24.482
  P      -56.726     236.501      22.141
  C      -54.652     237.773      21.292
  O      -56.052     237.564      21.149
  C      -54.194     238.883      20.349
  O      -54.236     238.428      18.979
  C      -55.064     240.134      20.400
  O      -54.797     240.888      21.563
  C      -54.669     240.799      19.090
  O      -53.414     241.485      19.218
  C      -54.527     239.577      18.151
  N      -55.717     239.349      17.330
  C      -55.762     240.027      16.115
  O      -54.872     240.784      15.731
  N      -56.897     239.841      15.372
  C      -57.999     239.135      15.762
  O      -59.073     239.176      15.169
  C      -57.864     238.381      17.017
  C      -56.753     238.534      17.740
  O      -58.199     236.329      21.978
  O      -55.936     235.148      21.802
  H      -56.536     234.387      21.923
  H      -53.205     241.845      18.333
  H      -56.963     240.366      14.511
  H      -58.693     237.757      17.328
  H      -56.643     238.011      18.684
  H      -53.670     239.708      17.479
  H      -55.404     241.536      18.759
  H      -56.124     239.857      20.350
  H      -53.151     239.128      20.590
  H      -54.135     236.843      21.036
  H      -54.431     238.030      22.332
  P      -55.980     241.388      22.517
  C      -55.541     243.909      22.397
  O      -55.512     242.751      23.219
  O      -56.513     240.359      23.459
  O      -57.122     241.879      21.503
  H      -57.961     241.433      21.728
  H      -55.211     244.756      22.962
  H      -56.540     244.077      22.053
  H      -54.893     243.767      21.557

 6  7  8  9  10  11  12  13  14  15  16  27  31  32  33  34  35 0
 6-311+G(2d,p)
 ****
 36  37 0
 6-311+G(2d,p)
 ****
 1  2  3  4  5  17  18  19  20  21  22  23  24  25 0
 3-21G
 ****
 26  28  29  30  38  39  40  41  42  43  44  45 0
 3-21G
 ****


