%nproc=1
%NoSave
%Mem=1900MB
#P OB98/GEN NMR

erre ene a

0 1
  C      472.930     804.422     164.020
  O      472.087     803.665     164.900
  P      472.426     803.604     166.472
  C      472.001     801.093     166.992
  O      471.545     802.443     167.150
  C      471.101     800.135     167.803
  O      471.184     800.428     169.222
  C      469.629     800.282     167.453
  O      469.229     799.815     166.174
  C      468.958     799.646     168.654
  O      468.899     798.226     168.547
  C      469.908     800.071     169.797
  N      469.365     801.165     170.617
  C      468.152     800.925     171.246
  O      467.519     799.888     171.106
  N      467.667     801.959     172.015
  C      468.249     803.175     172.176
  O      467.766     804.066     172.872
  C      469.526     803.376     171.477
  C      470.020     802.380     170.734
  O      472.415     804.911     167.183
  O      473.902     802.960     166.476
  H      468.329     798.011     167.770
  H      474.420     803.423     167.164
  H      466.784     801.795     172.488
  H      470.014     804.344     171.583
  H      470.947     802.503     170.201
  H      470.096     799.227     170.477
  H      467.919     799.993     168.768
  H      469.365     801.345     167.479
  H      471.465     799.111     167.645
  H      473.030     801.012     167.324
  H      471.985     800.838     165.924
  P      468.723     800.806     165.010
  C      466.528     799.757     164.084
  O      467.931     799.931     163.922
  O      469.699     801.815     164.506
  O      467.520     801.572     165.748
  H      467.468     802.487     165.404
  H      466.166     799.127     163.262
  H      466.030     800.729     164.043
  H      466.313     799.259     165.023
  H      472.557     804.351     163.020
  H      473.926     804.033     164.058
  H      472.936     805.447     164.326

 3  4  5  6  7  8  9  10  11  12  13  23  28  29  30  31  32 0
 6-311+G(2d,p)
 ****
 33  34 0
 6-311+G(2d,p)
 ****
 1  2  14  15  16  17  18  19  20  21  22  24  25  26  27 0
 3-21G
 ****
 35  36  37  38  39  40  41  42  43  44  45 0
 3-21G
 ****


