%nproc=1
%NoSave
%Mem=1900MB
#P OB98/GEN NMR

erre ene a

0 1
  C      -48.730      53.899     146.349
  O      -49.319      54.879     147.177
  H      -48.397      53.064     146.972
  H      -47.859      54.323     145.840
  H      -49.448      53.525     145.613
  P      -50.148      56.045     146.453
  C      -48.222      57.650     145.799
  O      -49.176      56.701     145.351
  C      -47.778      58.547     144.642
  O      -47.068      57.736     143.670
  C      -48.940      59.236     143.915
  O      -48.539      60.562     143.554
  C      -49.119      58.398     142.659
  O      -49.713      59.132     141.589
  C      -47.684      57.954     142.386
  N      -48.428      56.126     137.748
  C      -48.461      57.428     138.210
  N      -48.742      58.387     137.302
  N      -48.239      57.760     139.456
  C      -47.934      56.699     140.245
  C      -47.874      55.367     139.908
  C      -48.151      55.010     138.531
  O      -48.160      53.873     138.066
  N      -47.568      54.592     140.999
  C      -47.441      55.455     141.991
  N      -47.649      56.745     141.582
  O      -50.251      57.174     147.584
  O      -51.499      55.653     145.949
  H      -49.735      58.541     140.803
  H      -51.185      57.302     147.840
  H      -48.621      55.927     136.779
  H      -47.212      55.202     143.019
  H      -47.104      58.718     141.851
  H      -49.759      57.536     142.879
  H      -48.876      58.208     136.318
  H      -49.854      59.282     144.512
  H      -48.736      59.353     137.611
  H      -47.062      59.283     145.024
  H      -47.352      57.117     146.201
  H      -48.662      58.261     146.595
  P      -48.590      61.676     144.711
  C      -51.086      62.142     144.189
  O      -50.116      61.841     145.183
  O      -48.293      63.037     143.919
  O      -47.601      61.455     145.807
  H      -47.396      63.357     144.136
  H      -52.051      62.222     144.645
  H      -51.101      61.361     143.457
  H      -50.836      63.069     143.716

 6  7  8  9  10  11  12  13  14  15  26  29  33  34 0
 6-311+G(2d,p)
 ****
 36  38  39  40  41 0
 6-311+G(2d,p)
 ****
 1  2  3  4  5  16  17  18  19  20  21  22  23  24  25 0
 3-21G
 ****
 27  28  30  31  32  35  37  42  43  44  45  46  47 0
 3-21G
 ****
 48  49 0
 3-21G
 ****


