%nproc=1
%NoSave
%Mem=1900MB
#P OB98/GEN NMR

erre ene a

0 1
  C      -25.479       8.809    -110.900
  O      -25.756       9.563    -112.067
  P      -25.030      10.969    -112.339
  C      -25.179      12.722    -114.217
  O      -25.490      11.390    -113.820
  C      -25.487      12.914    -115.704
  O      -24.502      12.175    -116.473
  C      -26.846      12.389    -116.173
  O      -27.927      13.291    -115.977
  C      -26.584      12.234    -117.670
  O      -26.665      13.520    -118.309
  C      -25.141      11.719    -117.695
  N      -24.131       7.726    -120.736
  C      -24.081       9.063    -120.949
  N      -24.387      10.060    -120.095
  C      -24.732       9.565    -118.894
  C      -24.818       8.230    -118.518
  C      -24.497       7.285    -119.510
  N      -24.521       5.921    -119.280
  N      -25.223       8.118    -117.204
  C      -25.362       9.357    -116.787
  N      -25.069      10.271    -117.765
  O      -23.559      10.963    -112.098
  O      -25.814      12.006    -111.411
  H      -27.559      13.877    -118.121
  H      -25.284      12.822    -111.304
  H      -23.768       9.370    -121.942
  H      -25.674       9.645    -115.798
  H      -24.567      12.127    -118.534
  H      -27.311      11.582    -118.167
  H      -27.064      11.403    -115.742
  H      -25.376      13.980    -115.947
  H      -24.106      12.890    -114.051
  H      -24.154       5.327    -120.003
  H      -24.634       5.598    -118.326
  H      -25.737      13.430    -113.601
  P      -29.402      12.650    -115.859
  C      -31.529      13.542    -114.610
  O      -30.119      13.444    -114.664
  O      -29.425      11.166    -115.749
  O      -30.141      13.216    -117.160
  H      -30.290      14.182    -117.170
  H      -31.811      13.972    -113.645
  H      -31.992      12.559    -114.703
  H      -31.882      14.201    -115.404
  H      -26.061       7.911    -110.909
  H      -25.727       9.387    -110.035
  H      -24.439       8.559    -110.875

 3  4  5  6  7  8  9  10  11  12  22  25  29  30  31  32 0
 6-311+G(2d,p)
 ****
 33  36  37 0
 6-311+G(2d,p)
 ****
 1  2  13  14  15  16  17  18  19  20  21  23  24  26 0
 3-21G
 ****
 27  28  34  35  38  39  40  41  42  43  44  45  46  47  48 0
 3-21G
 ****


