%nproc=1
%NoSave
%Mem=1900MB
#P OB98/GEN NMR

erre ene a

0 1
  C      312.083    -168.586    -143.489
  O      311.527    -169.827    -143.048
  P      309.937    -170.029    -143.218
  C      309.242    -168.575    -141.148
  O      309.263    -168.720    -142.567
  C      307.845    -168.123    -140.684
  O      307.770    -168.210    -139.220
  C      307.465    -166.687    -141.089
  O      306.060    -166.709    -141.380
  C      307.725    -165.899    -139.814
  O      306.995    -164.677    -139.795
  C      307.318    -166.922    -138.755
  N      307.859    -166.610    -137.430
  C      307.166    -165.667    -136.666
  O      306.183    -165.059    -137.089
  N      307.670    -165.430    -135.414
  C      308.819    -165.956    -134.893
  O      309.216    -165.707    -133.763
  C      309.571    -166.858    -135.789
  C      309.062    -167.135    -136.996
  O      309.658    -171.193    -142.158
  O      309.536    -170.330    -144.626
  H      310.193    -171.128    -141.354
  H      307.299    -164.137    -139.041
  H      307.156    -164.774    -134.830
  H      310.514    -167.255    -135.432
  H      309.603    -167.773    -137.690
  H      306.223    -166.971    -138.672
  H      308.793    -165.667    -139.739
  H      308.019    -166.339    -141.952
  H      307.111    -168.837    -141.080
  H      309.970    -167.822    -140.840
  H      309.528    -169.525    -140.684
  P      305.596    -166.414    -142.901
  C      305.025    -163.854    -142.739
  O      305.905    -164.872    -143.199
  O      304.005    -166.435    -142.717
  O      306.079    -167.409    -143.921
  H      303.703    -165.914    -141.946
  H      305.528    -162.892    -142.834
  H      304.741    -164.016    -141.697
  H      304.122    -163.847    -143.370
  H      313.139    -168.588    -143.318
  H      311.635    -167.781    -142.945
  H      311.891    -168.461    -144.534

 3  4  5  6  7  8  9  10  11  12  13  24  28  29  30  31  32 0
 6-311+G(2d,p)
 ****
 33  34 0
 6-311+G(2d,p)
 ****
 1  2  14  15  16  17  18  19  20  21  22  23  25  26  27 0
 3-21G
 ****
 35  36  37  38  39  40  41  42  43  44  45 0
 3-21G
 ****


