%nproc=1
%NoSave
%Mem=1900MB
#P OB98/GEN NMR

erre ene a

0 1
  C     -382.378    -363.620     797.450
  O     -383.124    -363.110     798.566
  P     -383.586    -361.583     798.680
  C     -385.855    -360.855     799.685
  O     -384.565    -361.418     799.938
  C     -386.769    -360.956     800.908
  O     -387.077    -362.335     801.206
  C     -386.177    -360.386     802.193
  O     -386.214    -358.965     802.187
  C     -387.063    -361.045     803.241
  O     -388.303    -360.324     803.392
  C     -387.311    -362.428     802.620
  N     -386.488    -363.474     803.234
  C     -387.134    -364.368     804.085
  O     -388.345    -364.225     804.346
  N     -386.412    -365.385     804.656
  C     -385.131    -365.450     804.445
  N     -384.452    -366.489     805.019
  C     -384.387    -364.476     803.621
  C     -385.121    -363.527     803.050
  O     -384.132    -361.016     797.406
  O     -382.268    -360.789     799.125
  H     -388.652    -360.179     802.481
  H     -382.305    -359.878     798.766
  H     -383.321    -364.553     803.506
  H     -384.657    -362.767     802.430
  H     -388.369    -362.716     802.730
  H     -386.595    -361.084     804.234
  H     -385.138    -360.738     802.320
  H     -387.711    -360.441     800.667
  H     -384.998    -367.146     805.573
  H     -386.309    -361.417     798.852
  H     -383.454    -366.636     804.924
  H     -385.732    -359.810     799.383
  P     -384.837    -358.142     802.199
  C     -384.173    -355.778     801.444
  O     -385.202    -356.597     801.953
  O     -383.751    -358.675     801.334
  O     -384.401    -358.142     803.739
  H     -383.423    -358.134     803.796
  H     -384.614    -354.903     800.946
  H     -383.550    -356.324     800.722
  H     -383.530    -355.432     802.264
  H     -382.186    -364.662     797.596
  H     -381.450    -363.094     797.371
  H     -382.943    -363.484     796.551

 3  4  5  6  7  8  9  10  11  12  13  23  27  28  29  30  32 0
 6-311+G(2d,p)
 ****
 34  35 0
 6-311+G(2d,p)
 ****
 1  2  14  15  16  17  18  19  20  21  22  24  25  26 0
 3-21G
 ****
 31  33  36  37  38  39  40  41  42  43  44  45  46 0
 3-21G
 ****


