%nproc=1
%NoSave
%Mem=1900MB
#P OB98/GEN NMR

erre ene a

0 1
  C     -403.500    -180.390    -284.613
  O     -404.280    -179.298    -285.059
  P     -403.886    -177.803    -284.649
  C     -403.687    -176.394    -282.510
  O     -404.057    -177.654    -283.061
  C     -404.754    -175.908    -281.530
  O     -404.977    -176.877    -280.483
  C     -404.389    -174.623    -280.808
  O     -404.469    -173.490    -281.654
  C     -405.389    -174.639    -279.662
  O     -406.673    -174.165    -280.096
  C     -405.459    -176.144    -279.331
  N     -404.708    -176.486    -278.133
  C     -405.307    -176.143    -276.914
  O     -406.363    -175.514    -276.893
  N     -404.681    -176.514    -275.752
  C     -403.509    -177.065    -275.796
  N     -402.965    -177.468    -274.616
  C     -402.775    -177.297    -277.057
  C     -403.437    -177.007    -278.177
  O     -404.541    -176.729    -285.452
  O     -402.295    -177.757    -284.836
  H     -402.064    -176.973    -285.370
  H     -407.252    -174.175    -279.307
  H     -401.770    -177.696    -277.038
  H     -402.985    -177.167    -279.149
  H     -406.502    -176.456    -279.195
  H     -405.078    -174.006    -278.825
  H     -403.371    -174.703    -280.403
  H     -405.690    -175.782    -282.088
  H     -403.504    -177.309    -273.773
  H     -403.574    -175.674    -283.325
  H     -402.238    -178.176    -274.566
  H     -402.720    -176.498    -282.004
  P     -403.261    -172.438    -281.578
  C     -402.143    -171.024    -279.719
  O     -403.225    -171.858    -280.087
  O     -403.788    -171.208    -282.454
  O     -401.954    -172.951    -282.092
  H     -403.045    -170.807    -282.943
  H     -402.433    -170.447    -278.834
  H     -401.881    -170.330    -280.522
  H     -401.277    -171.641    -279.466
  H     -403.917    -181.302    -284.986
  H     -403.495    -180.412    -283.543
  H     -402.498    -180.283    -284.972

 3  4  5  6  7  8  9  10  11  12  13  24  27  28  29  30  32 0
 6-311+G(2d,p)
 ****
 34  35 0
 6-311+G(2d,p)
 ****
 1  2  14  15  16  17  18  19  20  21  22  23  25  26 0
 3-21G
 ****
 31  33  36  37  38  39  40  41  42  43  44  45  46 0
 3-21G
 ****


