%nproc=1
%NoSave
%Mem=1900MB
#P OB98/GEN NMR

erre ene a

0 1
  C      132.148     180.033     -75.566
  O      132.825     179.102     -76.395
  P      132.421     177.554     -76.267
  C      134.410     176.017     -75.589
  O      133.398     176.920     -75.163
  C      135.600     176.789     -76.153
  O      135.848     177.981     -75.378
  C      136.914     176.015     -76.129
  O      137.026     175.114     -77.219
  C      137.920     177.144     -76.267
  O      138.024     177.546     -77.646
  C      137.272     178.259     -75.433
  N      141.312     179.507     -72.656
  C      141.054     179.743     -73.993
  N      142.032     180.346     -74.699
  N      139.929     179.423     -74.583
  C      139.045     178.817     -73.752
  C      139.186     178.530     -72.411
  C      140.440     178.880     -71.776
  O      140.751     178.649     -70.612
  N      138.071     177.921     -71.907
  C      137.248     177.839     -72.934
  N      137.811     178.328     -74.084
  O      132.955     176.919     -77.635
  O      130.965     177.305     -76.062
  H      138.472     176.816     -78.117
  H      132.533     176.052     -77.789
  H      142.199     179.767     -72.250
  H      136.249     177.419     -72.896
  H      137.394     179.241     -75.899
  H      138.927     176.860     -75.943
  H      142.943     180.563     -74.320
  H      137.062     175.510     -75.168
  H      141.893     180.478     -75.695
  H      135.352     177.099     -77.178
  H      134.004     175.359     -76.360
  H      134.725     175.402     -74.740
  P      138.194     174.013     -77.128
  C      140.180     174.247     -78.785
  O      139.518     174.752     -77.641
  O      137.830     173.001     -78.313
  O      138.292     173.327     -75.804
  H      138.182     172.112     -78.124
  H      140.883     175.005     -79.146
  H      139.469     174.024     -79.587
  H      140.740     173.344     -78.524
  H      132.519     181.018     -75.759
  H      132.316     179.784     -74.539
  H      131.099     179.999     -75.774

 3  4  5  6  7  8  9  10  11  12  23  26  30  31 0
 6-311+G(2d,p)
 ****
 33  35  36  37  38 0
 6-311+G(2d,p)
 ****
 1  2  13  14  15  16  17  18  19  20  21  22  24  25 0
 3-21G
 ****
 27  28  29  32  34  39  40  41  42  43  44  45  46  47  48  49 0
 3-21G
 ****


