%nproc=1
%NoSave
%Mem=1900MB
#P OB98/GEN NMR

erre ene a

0 1
  C       74.257     139.269    -342.666
  O       73.316     140.338    -342.530
  P       73.894     141.708    -341.922
  C       72.698     141.582    -339.623
  O       73.935     141.548    -340.322
  C       72.927     141.658    -338.106
  O       73.521     140.420    -337.611
  C       73.855     142.807    -337.682
  O       73.377     143.282    -336.419
  C       75.190     142.092    -337.520
  O       76.144     142.842    -336.781
  C       74.708     140.792    -336.878
  N       79.193     139.227    -335.012
  C       78.467     140.351    -334.797
  N       77.278     140.698    -335.337
  C       76.847     139.733    -336.172
  C       77.473     138.542    -336.493
  C       78.708     138.297    -335.863
  N       79.465     137.169    -336.090
  N       76.721     137.822    -337.414
  C       75.703     138.615    -337.692
  N       75.693     139.738    -336.910
  O       72.711     142.756    -342.173
  O       75.183     142.142    -342.539
  H       77.032     142.435    -336.873
  H       72.896     143.296    -342.963
  H       78.901     141.066    -334.103
  H       74.947     138.425    -338.444
  H       74.420     140.936    -335.828
  H       75.623     141.898    -338.507
  H       73.885     143.638    -338.393
  H       71.950     141.770    -337.617
  H       72.116     140.687    -339.848
  H       80.340     137.081    -335.592
  H       79.144     136.455    -336.730
  H       72.109     142.433    -339.979
  P       72.080     144.234    -336.392
  C       73.291     146.485    -336.615
  O       72.501     145.511    -337.269
  O       72.183     144.828    -334.905
  O       70.773     143.579    -336.700
  H       73.078     145.172    -334.725
  H       73.569     147.253    -337.340
  H       74.198     146.031    -336.210
  H       72.715     146.955    -335.807
  H       73.766     138.412    -343.078
  H       74.658     139.023    -341.705
  H       75.050     139.573    -343.317

 3  4  5  6  7  8  9  10  11  12  22  25  29  30  31  32 0
 6-311+G(2d,p)
 ****
 33  36  37 0
 6-311+G(2d,p)
 ****
 1  2  13  14  15  16  17  18  19  20  21  23  24  26 0
 3-21G
 ****
 27  28  34  35  38  39  40  41  42  43  44  45  46  47  48 0
 3-21G
 ****


