%nproc=1
%NoSave
%Mem=1900MB
#P OB98/GEN NMR

erre ene a

0 1
  C     -369.174    -224.003    -425.695
  O     -370.253    -224.715    -425.122
  H     -369.285    -224.008    -426.781
  H     -368.227    -224.489    -425.438
  H     -369.172    -222.966    -425.344
  P     -370.379    -224.684    -423.524
  C     -372.164    -226.610    -423.598
  O     -370.940    -226.116    -423.063
  C     -372.393    -228.055    -423.149
  O     -371.593    -228.972    -423.929
  C     -371.949    -228.324    -421.713
  O     -372.807    -227.735    -420.757
  C     -371.976    -229.848    -421.704
  O     -373.308    -230.348    -421.559
  C     -371.422    -230.167    -423.119
  N     -370.029    -230.600    -423.087
  C     -369.751    -231.703    -422.266
  O     -370.656    -232.248    -421.628
  N     -368.451    -232.132    -422.163
  C     -367.516    -231.543    -422.840
  N     -366.246    -232.012    -422.691
  C     -367.768    -230.398    -423.730
  C     -369.037    -229.985    -423.804
  O     -371.634    -223.717    -423.290
  O     -369.135    -224.274    -422.799
  H     -373.675    -229.941    -420.754
  H     -372.429    -223.986    -423.780
  H     -366.956    -229.938    -424.286
  H     -369.304    -229.142    -424.445
  H     -372.013    -230.964    -423.594
  H     -371.387    -230.260    -420.883
  H     -370.911    -228.004    -421.565
  H     -373.448    -228.301    -423.301
  H     -366.111    -232.788    -422.044
  H     -372.167    -226.543    -424.690
  H     -365.438    -231.615    -423.130
  H     -372.970    -225.969    -423.224
  P     -372.211    -226.915    -419.518
  C     -374.291    -227.267    -418.038
  O     -372.904    -227.531    -418.205
  O     -372.293    -225.434    -419.631
  O     -370.708    -227.478    -419.400
  H     -370.647    -228.441    -419.243
  H     -374.635    -227.726    -417.135
  H     -374.833    -227.666    -418.870
  H     -374.449    -226.210    -417.984

 6  7  8  9  10  11  12  13  14  15  16  26  30  31  32  33  35 0
 6-311+G(2d,p)
 ****
 37  38 0
 6-311+G(2d,p)
 ****
 1  2  3  4  5  17  18  19  20  21  22  23  24  25 0
 3-21G
 ****
 27  28  29  34  36  39  40  41  42  43  44  45  46 0
 3-21G
 ****


