%nproc=1
%NoSave
%Mem=1900MB
#P OB98/GEN NMR

erre ene a

0 1
  C       59.070     -74.486    -111.492
  O       58.185     -75.214    -110.664
  H       59.020     -73.429    -111.217
  H       58.777     -74.591    -112.541
  H       60.095     -74.841    -111.355
  P       58.070     -76.788    -110.958
  C       55.576     -76.676    -111.659
  O       56.910     -76.957    -112.056
  C       54.685     -76.477    -112.882
  O       55.188     -75.410    -113.713
  C       54.560     -77.708    -113.774
  O       53.568     -78.593    -113.282
  C       54.173     -77.072    -115.102
  O       52.765     -76.748    -115.129
  C       55.024     -75.793    -115.106
  N       58.574     -73.354    -117.740
  C       57.328     -72.932    -117.320
  N       56.958     -71.683    -117.678
  N       56.507     -73.672    -116.622
  C       56.983     -74.918    -116.386
  C       58.197     -75.455    -116.748
  C       59.116     -74.606    -117.475
  O       60.264     -74.893    -117.803
  N       58.319     -76.749    -116.307
  C       57.170     -77.000    -115.709
  N       56.324     -75.923    -115.736
  O       57.398     -77.369    -109.623
  O       59.355     -77.481    -111.259
  H       52.557     -76.304    -115.969
  H       57.796     -78.237    -109.425
  H       59.175     -72.731    -118.249
  H       56.907     -77.939    -115.238
  H       54.513     -74.965    -115.611
  H       54.348     -77.748    -115.939
  H       57.404     -71.191    -118.440
  H       55.526     -78.215    -113.884
  H       56.017     -71.404    -117.433
  H       53.697     -76.163    -112.520
  H       55.572     -75.763    -111.054
  H       55.197     -77.506    -111.056
  P       53.770     -80.165    -113.523
  C       52.889     -79.627    -115.906
  O       53.747     -80.429    -115.107
  O       52.382     -80.784    -113.018
  O       54.921     -80.765    -112.789
  H       52.508     -81.217    -112.153
  H       52.982     -79.917    -116.932
  H       53.162     -78.598    -115.800
  H       51.876     -79.762    -115.588

 6  7  8  9  10  11  12  13  14  15  26  29  33  34 0
 6-311+G(2d,p)
 ****
 36  38  39  40  41 0
 6-311+G(2d,p)
 ****
 1  2  3  4  5  16  17  18  19  20  21  22  23  24  25 0
 3-21G
 ****
 27  28  30  31  32  35  37  42  43  44  45  46  47 0
 3-21G
 ****
 48  49 0
 3-21G
 ****


