%nproc=1
%NoSave
%Mem=1900MB
#P OB98/GEN NMR

erre ene a

0 1
  C     -351.661     471.510     406.267
  O     -352.631     471.041     407.182
  H     -351.026     470.671     405.970
  H     -351.040     472.276     406.738
  H     -352.146     471.919     405.376
  P     -353.677     472.126     407.728
  C     -355.855     471.361     406.516
  O     -354.785     472.291     406.580
  C     -355.748     470.511     405.244
  O     -354.531     469.713     405.315
  C     -356.913     469.527     405.053
  O     -357.086     469.314     403.642
  C     -356.359     468.267     405.695
  O     -357.133     467.141     405.349
  C     -354.926     468.331     405.178
  N     -352.689     463.734     405.267
  C     -353.510     464.316     404.369
  N     -354.056     465.547     404.406
  C     -353.658     466.210     405.504
  C     -352.817     465.753     406.505
  C     -352.324     464.444     406.361
  N     -351.493     463.845     407.279
  N     -352.643     466.719     407.478
  C     -353.367     467.742     407.069
  N     -354.003     467.477     405.888
  O     -352.855     473.496     407.665
  O     -354.222     471.863     409.092
  H     -356.927     466.382     405.935
  H     -352.455     473.685     408.535
  H     -353.766     463.710     403.504
  H     -353.472     468.688     407.589
  H     -354.864     468.072     404.113
  H     -356.384     468.341     406.786
  H     -357.854     469.878     405.487
  H     -355.639     471.175     404.378
  H     -356.798     471.918     406.513
  H     -355.823     470.707     407.391
  H     -351.197     462.898     407.109
  H     -351.228     464.358     408.108
  P     -358.356     469.967     402.901
  C     -357.275     471.244     400.891
  O     -357.888     471.314     402.170
  O     -359.203     470.539     404.138
  O     -359.182     469.028     402.084
  H     -360.150     470.556     403.902
  H     -357.030     472.231     400.558
  H     -357.951     470.791     400.196
  H     -356.382     470.658     400.955

 6  7  8  9  10  11  12  13  14  15  25  28  32  33  34  35 0
 6-311+G(2d,p)
 ****
 36  37  40 0
 6-311+G(2d,p)
 ****
 1  2  3  4  5  16  17  18  19  20  21  22  23  24 0
 3-21G
 ****
 26  27  29  30  31  38  39 41  42  43  44  45  46  47  48 0
 3-21G
 ****


