%nproc=1
%NoSave
%Mem=1900MB
#P OB98/GEN NMR

erre ene a

0 1
  C      173.577    -251.465     328.279
  O      173.026    -251.328     329.576
  H      174.613    -251.123     328.299
  H      173.013    -250.856     327.569
  H      173.555    -252.513     327.967
  P      171.512    -251.821     329.765
  C      169.322    -251.207     328.487
  O      170.607    -250.792     328.928
  C      168.646    -250.084     327.691
  O      168.335    -248.991     328.606
  C      169.536    -249.496     326.581
  O      168.688    -249.029     325.518
  C      170.160    -248.301     327.282
  O      170.713    -247.411     326.340
  C      168.954    -247.804     328.065
  N      170.077    -242.948     329.146
  C      169.677    -243.551     328.003
  N      169.390    -244.854     327.802
  C      169.523    -245.548     328.943
  C      169.920    -245.071     330.178
  C      170.213    -243.705     330.259
  N      170.642    -243.089     331.413
  N      169.960    -246.102     331.104
  C      169.585    -247.176     330.432
  N      169.308    -246.886     329.126
  O      171.195    -251.452     331.291
  O      171.259    -253.261     329.474
  H      171.024    -246.591     326.772
  H      171.385    -252.216     331.864
  H      169.579    -242.899     327.137
  H      169.507    -248.176     330.837
  H      168.217    -247.301     327.427
  H      170.967    -248.617     327.950
  H      170.262    -250.208     326.185
  H      167.694    -250.446     327.293
  H      168.719    -251.460     329.365
  H      169.424    -252.091     327.850
  H      170.859    -242.106     331.380
  H      170.783    -243.646     332.248
  P      168.469    -249.963     324.225
  C      169.401    -250.180     321.800
  O      169.534    -249.593     323.087
  O      167.104    -249.376     323.618
  O      168.319    -251.422     324.511
  H      166.507    -250.108     323.386
  H      170.187    -249.829     321.165
  H      168.455    -249.908     321.380
  H      169.460    -251.245     321.886

 6  7  8  9  10  11  12  13  14  15  25  28  32  33  34  35 0
 6-311+G(2d,p)
 ****
 36  37  40 0
 6-311+G(2d,p)
 ****
 1  2  3  4  5  16  17  18  19  20  21  22  23  24 0
 3-21G
 ****
 26  27  29  30  31  38  39 41  42  43  44  45  46  47  48 0
 3-21G
 ****


