%nproc=1
%NoSave
%Mem=1900MB
#P OB98/GEN NMR

erre ene a

0 1
  C       99.043      50.351    -277.057
  O       98.268      50.091    -278.206
  P       98.846      49.382    -279.514
  C       96.399      49.814    -280.287
  O       97.617      49.120    -280.523
  C       95.627      50.136    -281.576
  O       96.510      50.763    -282.527
  C       95.148      48.832    -282.236
  O       93.950      48.214    -281.802
  C       95.232      49.094    -283.740
  O       93.967      49.454    -284.300
  C       96.219      50.259    -283.837
  N       98.507      49.126    -288.219
  C       97.267      49.704    -288.009
  N       96.475      49.817    -289.096
  N       96.851      50.110    -286.835
  C       97.719      49.846    -285.831
  C       98.975      49.293    -285.920
  C       99.447      48.891    -287.227
  O      100.501      48.299    -287.444
  N       99.541      49.105    -284.684
  C       98.611      49.508    -283.844
  N       97.469      49.925    -284.489
  O       99.853      48.295    -279.309
  O       99.607      50.614    -280.228
  H       93.373      48.696    -284.205
  H      100.394      50.250    -280.679
  H       98.747      48.766    -289.138
  H       98.695      49.482    -282.766
  H       95.777      51.090    -284.400
  H       95.561      48.192    -284.271
  H       96.704      49.385    -289.980
  H       95.919      48.075    -282.042
  H       95.504      50.073    -288.949
  H       94.826      50.850    -281.390
  H       96.641      50.738    -279.747
  H       95.759      49.214    -279.628
  P       93.826      46.800    -281.065
  C       91.904      45.627    -282.283
  O       92.296      46.332    -281.119
  O       94.037      47.147    -279.514
  O       94.817      45.768    -281.503
  H       94.323      46.347    -279.032
  H       90.815      45.626    -282.358
  H       92.255      44.590    -282.212
  H       92.328      46.089    -283.186
  H       98.436      50.831    -276.318
  H       99.861      50.990    -277.316
  H       99.420      49.430    -276.665

 3  4  5  6  7  8  9  10  11  12  23  26  30  31 0
 6-311+G(2d,p)
 ****
 33  35  36  37  38 0
 6-311+G(2d,p)
 ****
 1  2  13  14  15  16  17  18  19  20  21  22  24  25 0
 3-21G
 ****
 27  28  29  32  34  39  40  41  42  43  44  45  46  47  48  49 0
 3-21G
 ****


