%nproc=1
%NoSave
%Mem=1900MB
#P OB98/GEN NMR

erre ene a

0 1
  C      433.878    -337.193     373.716
  O      435.069    -337.897     374.011
  H      433.030    -337.858     373.884
  H      433.880    -336.875     372.668
  H      433.782    -336.318     374.368
  P      436.442    -337.081     373.841
  C      436.852    -336.969     376.414
  O      436.645    -336.258     375.200
  C      436.773    -336.017     377.615
  O      435.367    -335.699     377.857
  C      437.322    -336.617     378.924
  O      437.815    -335.532     379.730
  C      436.065    -337.192     379.555
  O      436.275    -337.501     380.912
  C      435.082    -336.065     379.225
  N      431.093    -336.316     382.427
  C      432.344    -335.807     382.580
  N      433.345    -335.768     381.678
  C      432.956    -336.303     380.509
  C      431.720    -336.847     380.195
  C      430.761    -336.838     381.229
  N      429.491    -337.360     381.079
  N      431.691    -337.295     378.887
  C      432.897    -337.031     378.417
  N      433.698    -336.439     379.358
  O      436.068    -335.955     372.765
  O      437.623    -337.891     373.412
  H      435.536    -338.056     381.261
  H      436.321    -336.252     371.872
  H      432.556    -335.385     383.556
  H      433.241    -337.251     377.411
  H      435.248    -335.179     379.860
  H      435.770    -338.119     379.059
  H      438.122    -337.340     378.764
  H      437.273    -335.075     377.357
  H      437.843    -337.434     376.379
  H      436.090    -337.752     376.518
  H      428.866    -337.336     381.868
  H      429.228    -337.776     380.197
  P      439.375    -335.143     379.648
  C      439.058    -332.752     378.632
  O      439.586    -334.066     378.478
  O      440.012    -336.470     378.995
  O      440.033    -334.828     380.960
  H      440.944    -336.557     379.282
  H      439.289    -332.171     377.764
  H      439.492    -332.292     379.495
  H      437.996    -332.806     378.752

 6  7  8  9  10  11  12  13  14  15  25  28  32  33  34  35 0
 6-311+G(2d,p)
 ****
 36  37  40 0
 6-311+G(2d,p)
 ****
 1  2  3  4  5  16  17  18  19  20  21  22  23  24 0
 3-21G
 ****
 26  27  29  30  31  38  39 41  42  43  44  45  46  47  48 0
 3-21G
 ****


