%nproc=1
%NoSave
%Mem=1900MB
#P OB98/GEN NMR

erre ene a

0 1
  C      198.583     129.574    -315.268
  O      198.385     129.879    -313.883
  P      199.714     130.188    -313.035
  C      200.141     132.738    -313.242
  O      199.588     131.685    -312.463
  C      199.699     134.107    -312.702
  O      198.322     134.394    -313.078
  C      199.783     134.222    -311.166
  O      200.157     135.581    -310.875
  C      198.341     133.960    -310.752
  O      198.060     134.370    -309.422
  C      197.611     134.717    -311.858
  N      192.924     135.811    -310.146
  C      194.140     136.315    -309.841
  N      195.347     135.967    -310.343
  C      195.215     134.992    -311.253
  C      194.043     134.370    -311.677
  C      192.848     134.823    -311.073
  N      191.608     134.301    -311.366
  N      194.317     133.389    -312.614
  C      195.637     133.373    -312.702
  N      196.211     134.374    -311.967
  O      200.857     130.297    -314.157
  O      200.025     129.146    -312.009
  H      198.077     135.349    -309.369
  H      201.357     129.461    -314.212
  H      194.143     137.110    -309.090
  H      196.222     132.668    -313.277
  H      197.669     135.804    -311.725
  H      198.137     132.885    -310.819
  H      200.506     133.541    -310.709
  H      200.333     134.882    -313.166
  H      199.827     132.647    -314.282
  H      190.809     134.686    -310.880
  H      191.516     133.552    -312.041
  H      201.235     132.646    -313.241
  P      201.252     135.849    -309.735
  C      203.378     135.009    -310.904
  O      202.613     136.144    -310.536
  O      201.513     134.355    -309.209
  O      200.859     136.816    -308.661
  H      201.686     133.748    -309.953
  H      204.228     135.341    -311.510
  H      202.767     134.314    -311.490
  H      203.758     134.511    -310.008
  H      197.637     129.387    -315.731
  H      199.202     128.706    -315.357
  H      199.059     130.402    -315.751

 3  4  5  6  7  8  9  10  11  12  22  25  29  30  31  32 0
 6-311+G(2d,p)
 ****
 33  36  37 0
 6-311+G(2d,p)
 ****
 1  2  13  14  15  16  17  18  19  20  21  23  24  26 0
 3-21G
 ****
 27  28  34  35  38  39  40  41  42  43  44  45  46  47  48 0
 3-21G
 ****


