%nproc=1
%NoSave
%Mem=1900MB
#P OB98/GEN NMR

erre ene a

0 1
  C       35.672      82.261      37.198
  O       35.974      81.584      35.995
  H       35.958      81.626      38.041
  H       34.599      82.466      37.260
  H       36.231      83.198      37.255
  P       35.527      82.316      34.636
  C       33.306      80.989      34.970
  O       33.923      82.232      34.675
  C       32.016      80.851      34.167
  O       31.180      82.015      34.345
  C       32.229      80.730      32.663
  O       32.625      79.427      32.264
  C       30.840      81.077      32.162
  O       29.960      79.955      32.362
  C       30.468      82.248      33.099
  N       30.814      83.559      32.548
  C       30.043      84.010      31.470
  O       29.131      83.319      31.020
  N       30.344      85.226      30.904
  C       31.322      85.934      31.377
  N       31.585      87.123      30.770
  C       32.148      85.505      32.520
  C       31.844      84.323      33.049
  O       35.903      81.256      33.496
  O       36.083      83.682      34.414
  H       29.958      79.764      33.317
  H       35.552      81.563      32.626
  H       32.960      86.126      32.872
  H       32.411      83.941      33.891
  H       29.396      82.239      33.331
  H       30.816      81.320      31.098
  H       32.933      81.483      32.292
  H       31.463      79.989      34.563
  H       31.042      87.362      29.950
  H       33.090      80.956      36.043
  H       32.429      87.652      30.949
  H       33.980      80.165      34.716
  P       34.032      79.276      31.504
  C       32.859      79.017      29.202
  O       33.797      79.740      29.987
  O       34.206      77.692      31.381
  O       35.194      79.918      32.196
  H       35.136      77.428      31.518
  H       32.813      79.442      28.221
  H       31.894      79.071      29.660
  H       33.165      77.994      29.134

 6  7  8  9  10  11  12  13  14  15  16  26  30  31  32  33  35 0
 6-311+G(2d,p)
 ****
 37  38 0
 6-311+G(2d,p)
 ****
 1  2  3  4  5  17  18  19  20  21  22  23  24  25 0
 3-21G
 ****
 27  28  29  34  36  39  40  41  42  43  44  45  46 0
 3-21G
 ****


