%nproc=1
%NoSave
%Mem=1900MB
#P OB98/GEN NMR

erre ene a

0 1
  C     -474.338    -884.269    -119.633
  O     -475.383    -883.340    -119.897
  P     -476.865    -883.835    -120.174
  C     -477.839    -883.183    -117.890
  O     -477.870    -882.936    -119.288
  C     -478.778    -882.220    -117.131
  O     -478.189    -880.896    -117.131
  C     -480.175    -882.124    -117.746
  O     -481.106    -882.017    -116.647
  C     -480.120    -880.819    -118.507
  O     -481.420    -880.259    -118.753
  C     -479.204    -879.984    -117.634
  N     -478.611    -878.856    -118.329
  C     -478.912    -877.577    -117.843
  O     -479.739    -877.433    -116.942
  N     -478.271    -876.501    -118.401
  C     -477.546    -876.657    -119.451
  N     -476.860    -875.571    -119.925
  C     -477.392    -877.964    -120.140
  C     -477.921    -879.013    -119.520
  O     -477.087    -885.306    -120.048
  O     -477.184    -883.341    -121.681
  H     -477.494    -884.109    -122.211
  H     -481.901    -880.846    -119.367
  H     -476.900    -878.029    -121.097
  H     -477.856    -880.015    -119.921
  H     -479.748    -879.606    -116.757
  H     -479.647    -880.987    -119.494
  H     -480.443    -882.977    -118.356
  H     -478.851    -882.559    -116.094
  H     -476.951    -874.713    -119.402
  H     -476.811    -883.034    -117.542
  H     -476.053    -875.669    -120.541
  H     -478.101    -884.221    -117.681
  P     -482.462    -882.875    -116.711
  C     -483.131    -882.387    -114.238
  O     -483.477    -882.281    -115.615
  O     -481.996    -884.263    -116.018
  O     -483.013    -883.175    -118.068
  H     -482.576    -884.987    -116.335
  H     -483.967    -881.985    -113.670
  H     -482.242    -881.787    -114.043
  H     -482.958    -883.410    -113.977
  H     -473.422    -883.740    -119.474
  H     -474.228    -884.929    -120.468
  H     -474.578    -884.837    -118.759

 3  4  5  6  7  8  9  10  11  12  13  24  27  28  29  30  32 0
 6-311+G(2d,p)
 ****
 34  35 0
 6-311+G(2d,p)
 ****
 1  2  14  15  16  17  18  19  20  21  22  23  25  26 0
 3-21G
 ****
 31  33  36  37  38  39  40  41  42  43  44  45  46 0
 3-21G
 ****


