%nproc=1
%NoSave
%Mem=1900MB
#P OB98/GEN NMR

erre ene a

0 1
  C     -169.210     192.772      44.383
  O     -170.007     192.535      43.242
  H     -169.179     193.848      44.571
  H     -168.192     192.417      44.201
  H     -169.621     192.274      45.264
  P     -170.513     191.045      42.951
  C     -168.108     190.232      42.482
  O     -169.285     190.059      43.256
  C     -167.596     188.891      41.945
  O     -167.121     188.077      43.044
  C     -168.735     188.114      41.276
  O     -168.262     187.251      40.244
  C     -169.285     187.273      42.416
  O     -170.004     186.129      41.971
  C     -168.002     186.947      43.183
  N     -169.261     183.474      46.695
  C     -169.279     183.369      45.319
  N     -169.710     182.195      44.811
  N     -168.925     184.339      44.514
  C     -168.587     185.481      45.161
  C     -168.553     185.713      46.518
  C     -168.912     184.621      47.397
  O     -168.932     184.663      48.625
  N     -168.178     187.004      46.796
  C     -167.992     187.555      45.613
  N     -168.213     186.666      44.588
  O     -170.617     190.984      41.352
  O     -171.809     190.662      43.598
  H     -170.495     185.773      42.736
  H     -171.258     190.304      41.078
  H     -169.532     182.693      47.270
  H     -167.695     188.582      45.442
  H     -167.502     186.074      42.744
  H     -169.979     187.889      42.994
  H     -170.158     181.494      45.381
  H     -169.497     188.779      40.863
  H     -170.009     182.202      43.831
  H     -166.743     189.052      41.275
  H     -167.355     190.685      43.136
  H     -168.294     190.932      41.663
  P     -168.302     187.804      38.741
  C     -170.728     186.919      38.280
  O     -169.841     188.019      38.337
  O     -167.838     186.549      37.865
  O     -167.435     189.000      38.515
  H     -166.921     186.678      37.554
  H     -171.701     187.260      37.995
  H     -170.781     186.453      39.242
  H     -170.373     186.212      37.560

 6  7  8  9  10  11  12  13  14  15  26  29  33  34 0
 6-311+G(2d,p)
 ****
 36  38  39  40  41 0
 6-311+G(2d,p)
 ****
 1  2  3  4  5  16  17  18  19  20  21  22  23  24  25 0
 3-21G
 ****
 27  28  30  31  32  35  37  42  43  44  45  46  47 0
 3-21G
 ****
 48  49 0
 3-21G
 ****


