%nproc=1
%NoSave
%Mem=1900MB
#P OB98/GEN NMR

erre ene a

0 1
  C      -42.130      49.300    -427.380
  O      -41.341      49.435    -426.209
  P      -41.136      48.118    -425.312
  C      -39.075      47.452    -426.772
  O      -40.329      47.076    -426.221
  C      -38.135      46.245    -426.783
  O      -37.659      45.967    -425.447
  C      -38.775      44.957    -427.282
  O      -38.789      44.924    -428.696
  C      -37.872      43.901    -426.650
  O      -36.670      43.727    -427.423
  C      -37.561      44.524    -425.280
  N      -38.141      41.226    -421.497
  C      -37.186      41.276    -422.495
  N      -36.219      40.337    -422.445
  N      -37.175      42.168    -423.447
  C      -38.210      43.040    -423.377
  C      -39.227      43.085    -422.451
  C      -39.194      42.123    -421.371
  O      -39.960      42.096    -420.412
  N      -40.111      44.097    -422.720
  C      -39.608      44.682    -423.789
  N      -38.447      44.095    -424.216
  O      -42.611      47.504    -425.230
  O      -40.535      48.354    -423.964
  H      -36.262      44.597    -427.585
  H      -43.041      47.750    -424.388
  H      -38.089      40.526    -420.779
  H      -40.037      45.544    -424.276
  H      -36.538      44.310    -424.953
  H      -38.354      42.922    -426.599
  H      -36.175      39.601    -421.754
  H      -39.793      44.854    -426.883
  H      -35.510      40.352    -423.169
  H      -37.264      46.503    -427.398
  H      -38.637      48.246    -426.162
  H      -39.228      47.830    -427.788
  P      -39.795      43.894    -429.405
  C      -41.804      45.515    -429.131
  O      -41.270      44.233    -428.877
  O      -39.447      42.498    -428.705
  O      -39.652      43.810    -430.888
  H      -39.528      41.774    -429.356
  H      -42.893      45.434    -429.207
  H      -41.413      45.943    -430.059
  H      -41.557      46.180    -428.299
  H      -42.187      50.243    -427.882
  H      -43.115      48.979    -427.112
  H      -41.683      48.576    -428.029

 3  4  5  6  7  8  9  10  11  12  23  26  30  31 0
 6-311+G(2d,p)
 ****
 33  35  36  37  38 0
 6-311+G(2d,p)
 ****
 1  2  13  14  15  16  17  18  19  20  21  22  24  25 0
 3-21G
 ****
 27  28  29  32  34  39  40  41  42  43  44  45  46  47  48  49 0
 3-21G
 ****


