%nproc=1
%NoSave
%Mem=1900MB
#P OB98/GEN NMR

erre ene a

0 1
  C     -841.575     793.252     158.730
  O     -842.329     792.076     159.029
  P     -843.548     792.176     160.093
  C     -845.591     791.943     158.460
  O     -844.807     791.380     159.517
  C     -846.713     790.995     158.039
  O     -846.191     789.838     157.368
  C     -847.518     790.429     159.217
  O     -848.442     791.416     159.730
  C     -848.212     789.250     158.560
  O     -849.393     789.643     157.865
  C     -847.123     788.745     157.583
  N     -846.442     787.544     158.083
  C     -846.966     786.347     157.704
  O     -848.028     786.228     157.076
  N     -846.308     785.210     158.128
  C     -845.188     785.213     158.953
  O     -844.642     784.173     159.329
  C     -844.690     786.535     159.368
  C     -845.347     787.623     158.935
  O     -844.029     793.693     159.907
  O     -843.202     791.890     161.503
  H     -849.790     788.858     157.469
  H     -844.408     794.014     160.739
  H     -846.679     784.323     157.866
  H     -843.842     786.576     160.020
  H     -845.008     788.629     159.214
  H     -847.562     788.527     156.600
  H     -848.516     788.478     159.321
  H     -846.853     790.084     160.005
  H     -847.376     791.530     157.335
  H     -844.948     792.132     157.584
  H     -845.985     792.917     158.807
  P     -848.699     791.361     161.316
  C     -847.836     793.836     161.543
  O     -848.873     792.913     161.758
  O     -847.231     790.971     161.860
  O     -849.784     790.431     161.715
  H     -846.556     791.324     161.294
  H     -847.275     793.607     160.626
  H     -847.176     793.851     162.397
  H     -848.281     794.841     161.424
  H     -840.814     793.016     158.016
  H     -841.121     793.622     159.626
  H     -842.225     793.999     158.325

 3  4  5  6  7  8  9  10  11  12  13  23  28  29  30  31  32 0
 6-311+G(2d,p)
 ****
 33  34 0
 6-311+G(2d,p)
 ****
 1  2  14  15  16  17  18  19  20  21  22  24  25  26 0
 3-21G
 ****
 27  35  36  37  38  39  40  41  42  43  44  45 0
 3-21G
 ****


