%nproc=1
%NoSave
%Mem=1900MB
#P OB98/GEN NMR

erre ene a

0 1
  C       28.829    -170.387     275.259
  O       27.791    -171.171     274.707
  H       28.442    -169.804     276.100
  H       29.615    -171.050     275.627
  H       29.255    -169.718     274.507
  P       26.676    -170.411     273.843
  C       24.890    -170.750     275.694
  O       25.608    -169.826     274.894
  C       23.625    -170.096     276.260
  O       22.799    -169.654     275.146
  C       22.771    -171.029     277.136
  O       22.247    -170.271     278.227
  C       21.628    -171.422     276.211
  O       20.450    -171.791     276.920
  C       21.473    -170.154     275.377
  N       16.907    -170.281     273.140
  C       17.333    -169.709     274.286
  N       18.586    -169.678     274.784
  C       19.453    -170.259     273.937
  C       19.166    -170.878     272.729
  C       17.813    -170.891     272.341
  N       17.358    -171.530     271.210
  N       20.317    -171.411     272.177
  C       21.270    -171.137     273.046
  N       20.796    -170.445     274.125
  O       25.891    -171.624     273.147
  O       27.193    -169.437     272.841
  H       20.631    -172.606     277.434
  H       26.330    -171.863     272.311
  H       16.568    -169.223     274.888
  H       22.303    -171.441     272.957
  H       20.893    -169.378     275.891
  H       21.938    -172.270     275.587
  H       23.316    -171.901     277.516
  H       23.916    -169.206     276.821
  H       25.525    -171.072     276.529
  H       16.362    -171.579     271.072
  H       18.004    -172.082     270.666
  H       24.628    -171.624     275.093
  P       23.016    -170.365     279.630
  C       21.915    -172.709     279.924
  O       23.081    -171.905     280.071
  O       21.973    -169.730     280.667
  O       24.330    -169.647     279.653
  H       22.449    -169.266     281.385
  H       22.123    -173.703     280.261
  H       21.627    -172.734     278.894
  H       21.120    -172.294     280.507

 6  7  8  9  10  11  12  13  14  15  25  28  32  33  34  35 0
 6-311+G(2d,p)
 ****
 36  39  40 0
 6-311+G(2d,p)
 ****
 1  2  3  4  5  16  17  18  19  20  21  22  23  24 0
 3-21G
 ****
 26  27  29  30  31  37  38  41  42  43  44  45  46  47 0
 3-21G
 ****
 48 0
 3-21G
 ****


