%nproc=1
%NoSave
%Mem=1900MB
#P OB98/GEN NMR

erre ene a

0 1
  C     -362.730    -301.453      -0.758
  O     -363.649    -302.392      -0.198
  P     -364.443    -302.195       1.172
  C     -364.449    -303.497       3.460
  O     -363.733    -303.073       2.304
  C     -363.729    -304.662       4.159
  O     -363.859    -305.857       3.324
  C     -362.228    -304.401       4.346
  O     -361.736    -304.814       5.619
  C     -361.617    -305.058       3.116
  O     -360.231    -305.341       3.261
  C     -362.534    -306.262       2.907
  N     -360.178    -308.983      -0.720
  C     -359.734    -308.626       0.542
  N     -358.485    -309.027       0.873
  N     -360.434    -307.916       1.384
  C     -361.624    -307.512       0.895
  C     -362.174    -307.792      -0.340
  C     -361.409    -308.617      -1.250
  O     -361.770    -308.979      -2.365
  N     -363.416    -307.213      -0.477
  C     -363.607    -306.572       0.661
  N     -362.547    -306.730       1.535
  O     -365.931    -302.291       1.080
  O     -364.080    -300.682       1.606
  H     -359.956    -305.883       2.492
  H     -364.863    -300.342       2.084
  H     -359.605    -309.549      -1.322
  H     -364.488    -306.002       0.917
  H     -362.230    -307.118       3.513
  H     -361.712    -304.349       2.281
  H     -357.845    -309.468       0.226
  H     -362.015    -303.323       4.323
  H     -358.079    -308.580       1.700
  H     -364.230    -304.859       5.112
  H     -365.432    -303.824       3.102
  H     -364.606    -302.662       4.141
  P     -360.743    -304.036       6.605
  C     -358.418    -304.354       7.625
  O     -359.380    -304.860       6.721
  O     -361.395    -304.211       8.059
  O     -360.572    -302.577       6.285
  H     -361.632    -303.330       8.425
  H     -357.449    -304.835       7.421
  H     -358.717    -304.594       8.649
  H     -358.304    -303.274       7.517
  H     -362.344    -301.838      -1.679
  H     -361.924    -301.291      -0.073
  H     -363.234    -300.527      -0.942

 3  4  5  6  7  8  9  10  11  12  23  26  30  31 0
 6-311+G(2d,p)
 ****
 33  35  36  37  38 0
 6-311+G(2d,p)
 ****
 1  2  13  14  15  16  17  18  19  20  21  22  24  25 0
 3-21G
 ****
 27  28  29  32  34  39  40  41  42  43  44  45  46  47  48  49 0
 3-21G
 ****


