%nproc=1
%NoSave
%Mem=1900MB
#P OB98/GEN NMR

erre ene a

0 1
  C        9.964    -292.745    -341.909
  O        8.681    -292.796    -342.505
  H        9.896    -293.148    -340.896
  H       10.320    -291.711    -341.851
  H       10.674    -293.352    -342.478
  P        8.505    -292.220    -343.989
  C        7.947    -289.927    -342.932
  O        8.735    -290.635    -343.881
  C        7.301    -288.704    -343.579
  O        8.283    -287.673    -343.805
  C        6.653    -288.985    -344.937
  O        5.362    -289.550    -344.767
  C        6.605    -287.580    -345.515
  O        5.520    -286.843    -344.909
  C        7.954    -286.998    -345.051
  N        9.826    -285.809    -349.615
  C        8.595    -285.523    -349.064
  N        7.725    -284.848    -349.850
  N        8.239    -285.875    -347.855
  C        9.181    -286.602    -347.210
  C       10.433    -286.966    -347.657
  C       10.840    -286.511    -348.978
  O       11.930    -286.722    -349.492
  N       11.077    -287.783    -346.765
  C       10.233    -287.868    -345.750
  N        9.065    -287.178    -345.975
  O        7.240    -292.603    -344.697
  O        9.810    -292.726    -344.765
  H        5.786    -286.652    -343.992
  H        9.645    -293.580    -345.211
  H       10.040    -285.520    -350.559
  H       10.423    -288.415    -344.833
  H        7.891    -285.927    -344.835
  H        6.440    -287.571    -346.593
  H        7.883    -284.685    -350.832
  H        7.297    -289.606    -345.571
  H        6.795    -284.684    -349.480
  H        6.566    -288.296    -342.875
  H        8.609    -289.617    -342.116
  H        7.169    -290.578    -342.520
  P        4.715    -290.507    -345.883
  C        3.621    -288.449    -347.007
  O        4.475    -289.571    -347.163
  O        3.512    -291.264    -345.438
  O        5.923    -291.428    -346.369
  H        6.062    -292.225    -345.797
  H        3.554    -287.920    -347.935
  H        4.018    -287.800    -346.255
  H        2.647    -288.780    -346.714

 6  7  8  9  10  11  12  13  14  15  26  29  33  34 0
 6-311+G(2d,p)
 ****
 36  38  39  40  41 0
 6-311+G(2d,p)
 ****
 1  2  3  4  5  16  17  18  19  20  21  22  23  24  25 0
 3-21G
 ****
 27  28  30  31  32  35  37  42  43  44  45  46  47 0
 3-21G
 ****
 48  49 0
 3-21G
 ****


