%nproc=1
%NoSave
%Mem=1900MB
#P OB98/GEN NMR

erre ene a

0 1
  C      -47.677    -490.277     185.389
  O      -47.224    -491.209     186.347
  P      -46.103    -492.272     185.917
  C      -44.850    -492.494     188.192
  O      -45.695    -493.107     187.226
  C      -44.846    -493.311     189.492
  O      -46.165    -493.205     190.120
  C      -44.551    -494.806     189.303
  O      -43.835    -495.249     190.462
  C      -45.934    -495.420     189.294
  O      -45.936    -496.804     189.569
  C      -46.622    -494.552     190.362
  N      -48.079    -494.647     190.323
  C      -48.710    -495.287     191.382
  O      -48.117    -495.768     192.347
  N      -50.070    -495.407     191.284
  C      -50.830    -495.053     190.207
  O      -52.030    -495.302     190.129
  C      -50.112    -494.387     189.107
  C      -48.793    -494.216     189.209
  O      -44.817    -491.360     185.640
  O      -46.456    -493.107     184.737
  H      -45.685    -496.924     190.507
  H      -44.704    -491.209     184.682
  H      -50.546    -495.860     192.050
  H      -50.691    -494.070     188.254
  H      -48.231    -493.750     188.408
  H      -46.269    -494.842     191.361
  H      -46.390    -495.273     188.308
  H      -43.979    -495.022     188.389
  H      -44.130    -492.859     190.184
  H      -45.205    -491.486     188.395
  H      -43.831    -492.410     187.788
  P      -42.446    -496.035     190.222
  C      -41.338    -494.998     192.360
  O      -41.748    -496.156     191.665
  O      -41.592    -494.907     189.474
  O      -42.595    -497.302     189.450
  H      -41.692    -494.028     189.877
  H      -42.020    -494.164     192.185
  H      -40.332    -494.713     192.039
  H      -41.321    -495.218     193.434
  H      -48.418    -489.644     185.830
  H      -48.103    -490.799     184.557
  H      -46.854    -489.682     185.053

 3  4  5  6  7  8  9  10  11  12  13  23  28  29  30  31  32 0
 6-311+G(2d,p)
 ****
 33  34 0
 6-311+G(2d,p)
 ****
 1  2  14  15  16  17  18  19  20  21  22  24  25  26 0
 3-21G
 ****
 27  35  36  37  38  39  40  41  42  43  44  45 0
 3-21G
 ****


