%nproc=1
%NoSave
%Mem=1900MB
#P OB98/GEN NMR

erre ene a

0 1
  C       31.017      15.011    -117.107
  O       29.656      14.726    -116.858
  H       31.611      14.094    -117.055
  H       31.111      15.432    -118.112
  H       31.390      15.739    -116.383
  P       29.296      14.104    -115.423
  C       28.377      11.907    -116.461
  O       29.345      12.511    -115.615
  C       28.530      10.391    -116.413
  O       29.533       9.961    -117.360
  C       28.979       9.848    -115.061
  O       27.904       9.731    -114.146
  C       29.505       8.483    -115.470
  O       28.403       7.585    -115.695
  C       30.209       8.804    -116.795
  N       34.895       6.797    -116.365
  C       33.677       6.227    -116.481
  N       32.477       6.831    -116.586
  C       32.613       8.166    -116.563
  C       33.787       8.889    -116.441
  C       34.976       8.147    -116.346
  N       36.219       8.725    -116.212
  N       33.525      10.246    -116.420
  C       32.219      10.336    -116.560
  N       31.621       9.106    -116.641
  O       27.731      14.403    -115.266
  O       30.095      14.620    -114.275
  H       28.778       6.775    -116.088
  H       27.477      14.366    -114.325
  H       33.667       5.140    -116.489
  H       31.662      11.262    -116.609
  H       30.128       7.988    -117.523
  H       30.143       8.025    -114.713
  H       29.803      10.439    -114.642
  H       27.574       9.943    -116.714
  H       28.530      12.254    -117.487
  H       36.979       8.109    -115.965
  H       36.271       9.719    -116.046
  H       27.376      12.200    -116.130
  P       28.272       9.476    -112.605
  C       27.435       7.045    -113.001
  O       28.444       7.890    -112.453
  O       26.898       9.779    -111.848
  O       29.403      10.304    -112.088
  H       27.064      10.061    -110.928
  H       27.690       6.022    -112.821
  H       27.362       7.214    -114.055
  H       26.496       7.265    -112.539

 6  7  8  9  10  11  12  13  14  15  25  28  32  33  34  35 0
 6-311+G(2d,p)
 ****
 36  39  40 0
 6-311+G(2d,p)
 ****
 1  2  3  4  5  16  17  18  19  20  21  22  23  24 0
 3-21G
 ****
 26  27  29  30  31  37  38  41  42  43  44  45  46  47 0
 3-21G
 ****
 48 0
 3-21G
 ****


