%nproc=1
%NoSave
%Mem=1900MB
#P OB98/GEN NMR

erre ene a

0 1
  C      321.738     -55.256    -263.293
  O      322.986     -55.807    -263.677
  P      323.275     -57.349    -263.343
  C      323.835     -56.809    -260.860
  O      323.039     -57.554    -261.766
  C      324.771     -57.738    -260.081
  O      325.648     -56.937    -259.233
  C      324.051     -58.749    -259.177
  O      324.832     -59.953    -259.159
  C      324.118     -58.073    -257.818
  O      323.926     -58.976    -256.736
  C      325.524     -57.458    -257.890
  N      325.745     -56.420    -256.886
  C      326.672     -56.688    -255.883
  O      327.308     -57.740    -255.801
  N      326.807     -55.720    -254.922
  C      326.060     -54.581    -254.817
  O      326.153     -53.813    -253.863
  C      325.094     -54.353    -255.900
  C      324.979     -55.264    -256.867
  O      324.860     -57.468    -263.509
  O      322.544     -58.324    -264.210
  H      323.879     -58.449    -255.919
  H      325.079     -57.867    -264.378
  H      327.481     -55.894    -254.191
  H      324.499     -53.450    -255.858
  H      324.263     -55.131    -257.674
  H      326.283     -58.241    -257.782
  H      323.348     -57.299    -257.761
  H      323.025     -58.966    -259.492
  H      325.415     -58.267    -260.808
  H      323.181     -56.295    -260.151
  H      324.402     -56.050    -261.406
  P      324.057     -61.357    -259.270
  C      324.254     -62.022    -256.749
  O      323.425     -61.651    -257.826
  O      325.294     -62.372    -259.360
  O      323.124     -61.436    -260.442
  H      326.003     -62.157    -258.731
  H      325.236     -61.530    -256.804
  H      324.401     -63.108    -256.753
  H      323.772     -61.737    -255.809
  H      321.698     -54.227    -263.583
  H      321.626     -55.332    -262.232
  H      320.948     -55.793    -263.774

 3  4  5  6  7  8  9  10  11  12  13  23  28  29  30  31  32 0
 6-311+G(2d,p)
 ****
 33  34 0
 6-311+G(2d,p)
 ****
 1  2  14  15  16  17  18  19  20  21  22  24  25  26 0
 3-21G
 ****
 27  35  36  37  38  39  40  41  42  43  44  45 0
 3-21G
 ****


