%nproc=1
%NoSave
%Mem=1900MB
#P OB98/GEN NMR

erre ene a

0 1
  C      -59.798    -178.041     277.759
  O      -60.250    -177.167     276.725
  P      -60.259    -177.694     275.208
  C      -62.557    -176.711     274.584
  O      -61.157    -176.698     274.319
  C      -63.290    -175.535     273.917
  O      -63.278    -174.362     274.778
  C      -62.699    -175.111     272.559
  O      -63.792    -174.703     271.733
  C      -61.844    -173.913     272.937
  O      -61.527    -173.095     271.823
  C      -62.730    -173.270     274.010
  N      -62.000    -172.329     274.849
  C      -61.712    -171.079     274.304
  O      -61.979    -170.840     273.128
  N      -61.099    -170.137     275.108
  C      -60.675    -170.480     276.288
  N      -60.093    -169.523     277.060
  C      -60.809    -171.853     276.828
  C      -61.496    -172.709     276.071
  O      -60.576    -179.144     275.036
  O      -58.770    -177.369     274.702
  H      -61.090    -172.273     272.144
  H      -58.491    -178.062     274.080
  H      -60.371    -172.118     277.777
  H      -61.649    -173.734     276.379
  H      -63.576    -172.734     273.551
  H      -60.898    -174.260     273.380
  H      -62.146    -175.909     272.055
  H      -64.342    -175.830     273.781
  H      -59.991    -168.590     276.672
  H      -62.721    -176.671     275.663
  H      -59.789    -169.699     278.011
  H      -62.974    -177.674     274.255
  P      -64.338    -175.718     270.606
  C      -66.853    -175.284     271.131
  O      -65.809    -175.239     270.179
  O      -64.668    -177.032     271.482
  O      -63.382    -176.057     269.506
  H      -64.620    -177.814     270.902
  H      -67.689    -174.679     270.769
  H      -66.530    -174.889     272.099
  H      -67.201    -176.320     271.251
  H      -59.856    -177.538     278.702
  H      -58.784    -178.325     277.568
  H      -60.415    -178.915     277.782

 3  4  5  6  7  8  9  10  11  12  13  23  27  28  29  30  32 0
 6-311+G(2d,p)
 ****
 34  35 0
 6-311+G(2d,p)
 ****
 1  2  14  15  16  17  18  19  20  21  22  24  25  26 0
 3-21G
 ****
 31  33  36  37  38  39  40  41  42  43  44  45  46 0
 3-21G
 ****


