%nproc=1
%NoSave
%Mem=1900MB
#P OB98/GEN NMR

erre ene a

0 1
  C       29.469    -592.169    -210.901
  O       30.628    -591.965    -210.089
  P       31.893    -592.909    -210.363
  C       32.719    -595.253    -209.624
  O       31.702    -594.272    -209.527
  C       32.211    -596.636    -209.191
  O       31.929    -596.652    -207.758
  C       30.933    -597.077    -209.903
  O       30.984    -598.500    -210.051
  C       29.846    -596.732    -208.900
  O       28.641    -597.454    -209.169
  C       30.558    -597.085    -207.591
  N       27.881    -597.863    -203.304
  C       28.341    -598.711    -204.256
  N       29.029    -598.422    -205.385
  C       29.267    -597.095    -205.456
  C       28.854    -596.115    -204.578
  C       28.122    -596.538    -203.460
  N       27.627    -595.676    -202.502
  N       29.255    -594.865    -205.020
  C       29.890    -595.094    -206.159
  N       29.953    -596.433    -206.446
  O       33.082    -592.163    -209.586
  O       32.221    -593.085    -211.809
  H       27.993    -597.246    -208.452
  H       33.694    -591.752    -210.229
  H       28.125    -599.771    -204.092
  H       30.308    -594.343    -206.797
  H       30.552    -598.167    -207.392
  H       29.623    -595.658    -208.947
  H       30.764    -596.597    -210.875
  H       33.012    -597.370    -209.373
  H       33.576    -594.975    -209.005
  H       27.086    -596.059    -201.741
  H       27.759    -594.687    -202.629
  H       33.103    -595.278    -210.659
  P       30.480    -599.092    -211.460
  C       28.152    -599.312    -212.588
  O       28.931    -598.685    -211.596
  O       30.428    -600.678    -211.202
  O       31.346    -598.741    -212.623
  H       30.529    -601.154    -212.038
  H       27.157    -599.517    -212.172
  H       28.593    -600.252    -212.924
  H       28.044    -598.640    -213.437
  H       28.706    -591.476    -210.613
  H       29.112    -593.169    -210.768
  H       29.722    -592.014    -211.929

 3  4  5  6  7  8  9  10  11  12  22  25  29  30  31  32 0
 6-311+G(2d,p)
 ****
 33  36  37 0
 6-311+G(2d,p)
 ****
 1  2  13  14  15  16  17  18  19  20  21  23  24  26 0
 3-21G
 ****
 27  28  34  35  38  39  40  41  42  43  44  45  46  47  48 0
 3-21G
 ****


