%nproc=1
%NoSave
%Mem=1900MB
#P OB98/GEN NMR

erre ene a

0 1
  C       38.560     -66.817     -30.730
  O       39.785     -66.334     -30.207
  P       39.814     -65.912     -28.657
  C       39.595     -63.387     -29.230
  O       39.040     -64.510     -28.555
  C       39.487     -62.119     -28.382
  O       38.090     -61.852     -28.113
  C       40.222     -62.198     -27.044
  O       40.783     -60.913     -26.775
  C       39.111     -62.468     -26.047
  O       39.465     -62.039     -24.733
  C       37.941     -61.702     -26.686
  N       36.645     -62.191     -26.228
  C       36.531     -62.500     -24.870
  O       37.517     -62.428     -24.136
  N       35.319     -62.928     -24.388
  C       34.339     -63.136     -25.211
  N       33.158     -63.558     -24.686
  C       34.456     -62.941     -26.670
  C       35.617     -62.453     -27.101
  O       41.343     -65.506     -28.426
  O       39.360     -66.977     -27.714
  H       39.366     -61.062     -24.695
  H       41.623     -65.711     -27.513
  H       33.620     -63.165     -27.316
  H       35.786     -62.256     -28.152
  H       38.011     -60.631     -26.456
  H       38.893     -63.542     -26.013
  H       41.011     -62.955     -27.036
  H       39.869     -61.279     -28.976
  H       33.107     -63.698     -23.685
  H       39.044     -63.224     -30.161
  H       32.341     -63.747     -25.250
  H       40.639     -63.596     -29.484
  P       42.281     -60.858     -26.206
  C       41.600     -60.499     -23.757
  O       42.170     -61.388     -24.697
  O       42.478     -59.282     -25.978
  O       43.378     -61.423     -27.044
  H       43.391     -59.105     -25.687
  H       41.460     -61.031     -22.813
  H       40.629     -60.141     -24.108
  H       42.274     -59.653     -23.588
  H       38.685     -67.058     -31.765
  H       37.807     -66.064     -30.628
  H       38.264     -67.693     -30.192

 3  4  5  6  7  8  9  10  11  12  13  21  23  27  28  29  30  32 0
 6-311+G(2d,p)
 ****
 34  35 0
 6-311+G(2d,p)
 ****
 1  2  14  15  16  17  18  19  20  22  24  25  26 0
 3-21G
 ****
 31  33  36  37  38  39  40  41  42  43  44  45  46 0
 3-21G
 ****


