%nproc=1
%NoSave
%Mem=1900MB
#P OB98/GEN NMR

erre ene a

0 1
  C      685.888    -203.915     -12.435
  O      686.829    -203.153     -11.707
  H      686.415    -204.455     -13.226
  H      685.146    -203.259     -12.898
  H      685.391    -204.642     -11.787
  P      686.341    -202.381     -10.390
  C      686.783    -204.070      -8.491
  O      687.244    -202.912      -9.177
  C      687.819    -204.502      -7.456
  O      689.035    -204.925      -8.112
  C      688.229    -203.394      -6.495
  O      687.237    -203.172      -5.513
  C      689.541    -203.950      -5.962
  O      689.305    -204.916      -4.924
  C      690.132    -204.621      -7.219
  N      691.141    -203.797      -7.884
  C      692.400    -203.764      -7.293
  O      692.676    -204.358      -6.253
  N      693.338    -202.992      -7.933
  C      693.109    -202.183      -9.007
  O      693.962    -201.442      -9.486
  C      691.754    -202.239      -9.572
  C      690.847    -203.031      -8.995
  O      684.872    -202.394     -10.137
  O      686.882    -200.887     -10.607
  H      688.644    -205.542      -5.278
  H      686.138    -200.306     -10.852
  H      694.253    -202.947      -7.512
  H      691.539    -201.622     -10.434
  H      689.842    -203.080      -9.393
  H      690.595    -205.582      -6.956
  H      690.177    -203.174      -5.536
  H      688.438    -202.473      -7.050
  H      687.416    -205.366      -6.904
  H      686.636    -204.874      -9.217
  H      685.826    -203.841      -8.011
  P      687.070    -201.722      -4.859
  C      684.612    -201.891      -5.591
  O      685.512    -201.495      -4.560
  O      687.741    -200.609      -5.593
  O      687.695    -201.891      -3.394
  H      688.449    -201.282      -3.291
  H      683.607    -201.694      -5.282
  H      684.727    -202.937      -5.783
  H      684.826    -201.339      -6.483

 6  7  8  9  10  11  12  13  14  15  16  26  31  32  33  34  35 0
 6-311+G(2d,p)
 ****
 36  37 0
 6-311+G(2d,p)
 ****
 1  2  3  4  5  17  18  19  20  21  22  23  24  25 0
 3-21G
 ****
 27  28  29  30  38  39  40  41  42  43  44  45 0
 3-21G
 ****


