%nproc=1
%NoSave
%Mem=1900MB
#P OB98/GEN NMR

erre ene a

0 1
  C      -42.375    -222.470      30.924
  O      -42.071    -221.095      30.827
  H      -41.479    -223.049      30.676
  H      -43.169    -222.731      30.218
  H      -42.686    -222.720      31.942
  P      -43.258    -220.066      31.151
  C      -42.742    -219.227      33.551
  O      -42.641    -218.970      32.158
  C      -42.162    -218.059      34.352
  O      -40.891    -217.668      33.758
  C      -43.062    -216.814      34.377
  O      -42.972    -216.206      35.671
  C      -42.411    -215.896      33.354
  O      -42.737    -214.528      33.575
  C      -40.939    -216.240      33.564
  N      -38.131    -212.470      31.761
  C      -38.795    -212.598      32.964
  N      -38.701    -211.559      33.828
  N      -39.497    -213.650      33.298
  C      -39.480    -214.626      32.355
  C      -38.875    -214.619      31.121
  C      -38.121    -213.436      30.756
  O      -37.528    -213.257      29.694
  N      -39.125    -215.786      30.439
  C      -39.880    -216.493      31.261
  N      -40.119    -215.833      32.438
  O      -44.242    -220.914      32.088
  O      -43.960    -219.501      29.964
  H      -42.261    -213.994      32.903
  H      -45.165    -220.623      31.977
  H      -37.619    -211.634      31.549
  H      -40.281    -217.478      31.055
  H      -40.522    -215.755      34.455
  H      -42.737    -216.172      32.343
  H      -38.156    -210.730      33.653
  H      -44.108    -217.024      34.143
  H      -39.172    -211.641      34.723
  H      -41.940    -218.405      35.366
  H      -42.190    -220.142      33.790
  H      -43.796    -219.369      33.817
  P      -44.327    -216.048      36.516
  C      -44.206    -217.932      38.300
  O      -44.060    -216.546      38.019
  O      -45.264    -217.198      35.904
  O      -44.966    -214.706      36.386
  H      -45.968    -216.794      35.363
  H      -43.997    -218.110      39.334
  H      -43.523    -218.492      37.697
  H      -45.208    -218.237      38.081

 6  7  8  9  10  11  12  13  14  15  26  29  33  34 0
 6-311+G(2d,p)
 ****
 36  38  39  40  41 0
 6-311+G(2d,p)
 ****
 1  2  3  4  5  16  17  18  19  20  21  22  23  24  25 0
 3-21G
 ****
 27  28  30  31  32  35  37  42  43  44  45  46  47 0
 3-21G
 ****
 48  49 0
 3-21G
 ****


