%nproc=1
%NoSave
%Mem=1900MB
#P OB98/GEN NMR

erre ene a

0 1
  C     -244.562     568.917    -248.354
  O     -245.575     569.636    -247.675
  H     -244.908     568.689    -249.371
  H     -244.365     567.973    -247.835
  H     -243.640     569.503    -248.421
  P     -245.231     570.324    -246.273
  C     -244.113     572.484    -247.137
  O     -245.260     571.912    -246.517
  C     -244.386     573.940    -247.525
  O     -245.161     573.959    -248.770
  C     -245.196     574.738    -246.477
  O     -244.757     576.106    -246.543
  C     -246.606     574.589    -247.020
  O     -247.499     575.488    -246.414
  C     -246.327     574.764    -248.518
  N     -247.444     574.367    -249.368
  C     -248.612     575.116    -249.287
  O     -248.746     576.104    -248.552
  N     -249.654     574.692    -250.074
  C     -249.636     573.609    -250.909
  O     -250.594     573.289    -251.611
  C     -248.380     572.839    -250.929
  C     -247.359     573.248    -250.172
  O     -244.011     569.815    -245.580
  O     -246.552     570.074    -245.396
  H     -246.422     569.297    -244.817
  H     -248.359     575.488    -246.893
  H     -250.505     575.227    -250.024
  H     -248.344     571.964    -251.570
  H     -246.419     572.699    -250.160
  H     -246.057     575.803    -248.742
  H     -246.981     573.582    -246.811
  H     -245.061     574.359    -245.456
  H     -243.433     574.436    -247.745
  H     -243.878     571.898    -248.031
  H     -243.266     572.438    -246.438
  P     -244.146     576.896    -245.293
  C     -241.713     576.112    -245.632
  O     -242.595     577.221    -245.567
  O     -244.382     576.220    -243.971
  O     -244.848     578.342    -245.309
  H     -244.997     578.643    -244.386
  H     -240.718     576.458    -245.817
  H     -242.017     575.460    -246.424
  H     -241.739     575.581    -244.703

 6  7  8  9  10  11  12  13  14  15  16  27  31  32  33  34  35 0
 6-311+G(2d,p)
 ****
 36  37 0
 6-311+G(2d,p)
 ****
 1  2  3  4  5  17  18  19  20  21  22  23  24  25 0
 3-21G
 ****
 26  28  29  30  38  39  40  41  42  43  44  45 0
 3-21G
 ****


