%nproc=1
%NoSave
%Mem=1900MB
#P OB98/GEN NMR

erre ene a

0 1
  C     -253.144     629.626    -604.784
  O     -253.142     631.044    -604.825
  P     -253.808     631.851    -606.050
  C     -251.479     632.855    -606.597
  O     -252.841     633.110    -606.293
  C     -250.669     634.158    -606.542
  O     -251.006     634.955    -607.712
  C     -250.924     635.028    -605.303
  O     -249.686     635.656    -604.957
  C     -251.933     636.041    -605.806
  O     -251.952     637.212    -605.009
  C     -251.447     636.254    -607.242
  N     -252.484     636.806    -608.106
  C     -252.378     638.151    -608.462
  O     -251.462     638.837    -608.035
  N     -253.323     638.685    -609.301
  C     -254.326     637.958    -609.689
  N     -255.200     638.517    -610.577
  C     -254.536     636.562    -609.254
  C     -253.556     636.051    -608.490
  O     -255.248     632.179    -605.875
  O     -253.481     630.934    -607.327
  H     -252.224     637.968    -605.575
  H     -254.152     630.222    -607.473
  H     -255.409     636.012    -609.580
  H     -253.621     635.025    -608.153
  H     -250.547     636.901    -607.248
  H     -252.939     635.600    -605.793
  H     -251.283     634.435    -604.448
  H     -249.596     633.902    -606.626
  H     -254.936     639.403    -610.981
  H     -251.419     632.436    -607.604
  H     -255.814     637.935    -611.153
  H     -251.066     632.109    -605.898
  P     -249.038     635.336    -603.515
  C     -249.264     637.781    -602.685
  O     -248.407     636.701    -602.944
  O     -247.724     634.499    -603.945
  O     -249.861     634.526    -602.579
  H     -247.465     633.926    -603.212
  H     -248.667     638.607    -602.310
  H     -250.016     637.521    -601.951
  H     -249.762     638.095    -603.615
  H     -252.655     629.294    -603.892
  H     -252.626     629.244    -605.638
  H     -254.153     629.270    -604.790

 3  4  5  6  7  8  9  10  11  12  13  23  27  28  29  30  32 0
 6-311+G(2d,p)
 ****
 34  35 0
 6-311+G(2d,p)
 ****
 1  2  14  15  16  17  18  19  20  21  22  24  25  26 0
 3-21G
 ****
 31  33  36  37  38  39  40  41  42  43  44  45  46 0
 3-21G
 ****


