%nproc=1
%NoSave
%Mem=1900MB
#P OB98/GEN NMR

erre ene a

0 1
  C      253.946     759.718     504.140
  O      253.361     760.529     503.124
  P      251.959     761.281     503.262
  C      251.488     763.767     503.952
  O      252.222     762.853     503.153
  C      251.676     765.239     503.530
  O      253.072     765.626     503.723
  C      251.384     765.409     502.032
  O      250.054     765.591     501.589
  C      252.335     766.511     501.588
  O      251.735     767.802     501.612
  C      253.474     766.436     502.602
  N      258.057     767.471     500.570
  C      257.060     768.334     500.958
  N      257.287     769.664     500.747
  N      255.937     767.963     501.506
  C      255.803     766.613     501.587
  C      256.716     765.650     501.216
  C      257.971     766.090     500.665
  O      258.909     765.362     500.306
  N      256.224     764.395     501.426
  C      255.011     764.581     501.897
  N      254.710     765.915     502.024
  O      251.096     760.825     504.386
  O      251.202     760.921     501.886
  H      252.438     768.467     501.534
  H      250.241     760.879     502.095
  H      258.925     767.831     500.180
  H      254.313     763.803     502.187
  H      253.704     767.426     503.011
  H      252.653     766.342     500.546
  H      258.075     770.006     500.223
  H      251.737     764.498     501.535
  H      256.474     770.265     500.831
  H      251.087     765.899     504.156
  H      251.812     763.618     504.980
  H      250.419     763.524     503.909
  P      249.076     764.429     501.062
  C      248.258     762.489     502.522
  O      248.217     763.888     502.298
  O      250.060     763.217     500.741
  O      248.272     764.785     499.839
  H      249.616     762.555     500.171
  H      247.402     762.219     503.176
  H      249.196     762.212     503.006
  H      248.162     761.937     501.576
  H      254.883     759.333     503.794
  H      253.289     758.905     504.370
  H      254.105     760.307     505.019

 3  4  5  6  7  8  9  10  11  12  23  26  30  31 0
 6-311+G(2d,p)
 ****
 33  35  36  37  38 0
 6-311+G(2d,p)
 ****
 1  2  13  14  15  16  17  18  19  20  21  22  24  25 0
 3-21G
 ****
 27  28  29  32  34  39  40  41  42  43  44  45  46  47  48  49 0
 3-21G
 ****


