%nproc=1
%NoSave
%Mem=1900MB
#P OB98/GEN NMR

erre ene a

0 1
  C      388.102     189.012     -46.832
  O      387.901     188.396     -45.571
  P      388.326     189.217     -44.260
  C      386.113     188.429     -43.157
  O      387.521     188.582     -43.030
  C      385.499     187.818     -41.895
  O      386.082     186.503     -41.681
  C      385.720     188.638     -40.628
  O      384.539     188.533     -39.820
  C      386.860     187.918     -39.930
  O      386.857     188.169     -38.523
  C      386.581     186.466     -40.331
  N      387.774     185.627     -40.232
  C      387.625     184.357     -39.657
  O      386.524     184.028     -39.193
  N      388.705     183.527     -39.567
  C      389.877     183.960     -39.932
  N      390.927     183.105     -39.827
  C      390.117     185.336     -40.425
  C      389.026     186.094     -40.566
  O      387.610     190.639     -44.479
  O      389.806     189.362     -44.069
  H      385.985     187.903     -38.167
  H      388.141     191.364     -44.090
  H      391.120     185.658     -40.669
  H      389.105     187.117     -40.945
  H      385.808     186.025     -39.696
  H      387.819     188.265     -40.335
  H      385.925     189.698     -40.831
  H      384.427     187.669     -42.077
  H      390.742     182.171     -39.475
  H      385.900     187.767     -44.001
  H      391.873     183.353     -40.082
  H      385.667     189.409     -43.364
  P      383.998     189.858     -39.091
  C      381.442     189.606     -39.202
  O      382.612     189.428     -38.420
  O      383.500     190.725     -40.354
  O      384.954     190.643     -38.255
  H      383.195     191.603     -40.048
  H      380.599     189.156     -38.681
  H      381.563     189.139     -40.177
  H      381.241     190.690     -39.339
  H      387.775     188.352     -47.608
  H      389.142     189.227     -46.962
  H      387.541     189.922     -46.878

 3  4  5  6  7  8  9  10  11  12  13  21  23  27  28  29  30  32 0
 6-311+G(2d,p)
 ****
 34  35 0
 6-311+G(2d,p)
 ****
 1  2  14  15  16  17  18  19  20  22  24  25  26 0
 3-21G
 ****
 31  33  36  37  38  39  40  41  42  43  44  45  46 0
 3-21G
 ****


