%nproc=1
%NoSave
%Mem=1900MB
#P OB98/GEN NMR

erre ene a

0 1
  C     -606.253     525.224    -413.557
  O     -606.441     525.989    -412.390
  P     -607.894     526.481    -411.960
  C     -607.147     527.152    -409.595
  O     -607.679     527.606    -410.833
  C     -607.307     528.235    -408.520
  O     -608.705     528.612    -408.363
  C     -606.875     527.803    -407.134
  O     -605.487     527.538    -406.935
  C     -607.501     528.892    -406.272
  O     -606.694     530.075    -406.267
  C     -608.839     529.147    -407.023
  N     -609.974     528.560    -406.313
  C     -610.873     529.459    -405.753
  O     -610.751     530.677    -405.824
  N     -611.914     528.912    -405.064
  C     -612.124     527.570    -404.840
  O     -613.061     527.155    -404.176
  C     -611.133     526.669    -405.447
  C     -610.119     527.186    -406.142
  O     -608.859     525.397    -411.579
  O     -608.377     527.357    -413.218
  H     -605.897     529.886    -405.720
  H     -607.803     528.115    -413.419
  H     -612.565     529.546    -404.637
  H     -611.277     525.603    -405.302
  H     -609.378     526.545    -406.604
  H     -609.015     530.227    -407.135
  H     -607.609     528.574    -405.232
  H     -607.387     526.868    -406.882
  H     -606.768     529.129    -408.856
  H     -606.083     526.936    -409.726
  H     -607.651     526.223    -409.301
  P     -604.953     526.235    -406.178
  C     -602.639     526.952    -407.100
  O     -603.358     526.366    -406.036
  O     -605.511     524.920    -406.626
  O     -605.441     526.515    -404.668
  H     -605.617     525.663    -404.229
  H     -601.577     526.909    -406.856
  H     -602.942     528.015    -407.216
  H     -602.804     526.417    -408.036
  H     -605.214     524.995    -413.670
  H     -606.590     525.781    -414.406
  H     -606.812     524.315    -413.482

 3  4  5  6  7  8  9  10  11  12  13  23  28  29  30  31  32 0
 6-311+G(2d,p)
 ****
 33  34 0
 6-311+G(2d,p)
 ****
 1  2  14  15  16  17  18  19  20  21  22  24  25  26  27 0
 3-21G
 ****
 35  36  37  38  39  40  41  42  43  44  45 0
 3-21G
 ****


