%nproc=1
%NoSave
%Mem=1900MB
#P OB98/GEN NMR

erre ene a

0 1
  C      275.433      88.849      34.984
  O      275.016      88.265      36.204
  H      275.783      88.073      34.294
  H      274.585      89.369      34.527
  H      276.237      89.571      35.167
  P      276.110      87.419      37.013
  C      274.956      88.218      39.212
  O      275.439      87.119      38.441
  C      274.186      87.690      40.415
  O      273.047      86.917      39.979
  C      275.006      86.761      41.315
  O      275.836      87.466      42.221
  C      273.893      86.022      42.045
  O      273.338      86.864      43.068
  C      272.869      85.811      40.913
  N      273.413      80.740      41.403
  C      273.198      81.717      42.314
  N      273.045      83.044      42.099
  C      273.115      83.318      40.786
  C      273.333      82.430      39.749
  C      273.486      81.080      40.098
  N      273.745      80.082      39.174
  N      273.369      83.098      38.537
  C      273.172      84.363      38.839
  N      273.046      84.557      40.195
  O      277.242      88.498      37.373
  O      276.650      86.214      36.322
  H      274.054      87.049      43.706
  H      278.060      88.050      37.668
  H      273.142      81.395      43.354
  H      273.124      85.182      38.130
  H      271.837      85.843      41.265
  H      274.244      85.107      42.528
  H      275.582      86.041      40.722
  H      273.807      88.548      40.990
  H      274.295      88.831      38.588
  H      273.990      79.172      39.532
  H      273.943      80.348      38.219
  H      275.809      88.827      39.542
  P      277.418      87.214      42.138
  C      278.268      89.636      41.772
  O      278.131      88.543      42.671
  O      277.706      87.242      40.561
  O      277.874      85.930      42.768
  H      278.437      86.636      40.327
  H      278.760      90.446      42.268
  H      277.300      89.953      41.446
  H      278.847      89.331      40.926

 6  7  8  9  10  11  12  13  14  15  25  28  32  33  34  35 0
 6-311+G(2d,p)
 ****
 36  39  40 0
 6-311+G(2d,p)
 ****
 1  2  3  4  5  16  17  18  19  20  21  22  23  24 0
 3-21G
 ****
 26  27  29  30  31  37  38  41  42  43  44  45  46  47 0
 3-21G
 ****
 48 0
 3-21G
 ****


