%nproc=1
%NoSave
%Mem=1900MB
#P OB98/GEN NMR

erre ene a

0 1
  C       92.566    -794.068      40.865
  O       91.645    -794.741      41.719
  P       90.155    -794.979      41.161
  C       89.231    -793.329      42.939
  O       89.335    -793.661      41.549
  C       89.198    -791.815      43.121
  O       90.163    -791.202      42.242
  C       87.876    -791.162      42.792
  O       86.940    -791.277      43.849
  C       88.300    -789.712      42.580
  O       88.412    -789.069      43.865
  C       89.683    -789.868      41.931
  N       89.071    -786.599      38.123
  C       89.015    -786.389      39.484
  N       88.786    -785.120      39.890
  N       89.165    -787.340      40.374
  C       89.421    -788.550      39.820
  C       89.499    -788.873      38.484
  C       89.288    -787.825      37.516
  O       89.260    -787.961      36.288
  N       89.798    -790.206      38.320
  C       89.944    -790.672      39.544
  N       89.686    -789.704      40.492
  O       89.577    -796.086      42.155
  O       90.073    -795.412      39.735
  H       88.580    -788.127      43.696
  H       88.866    -796.593      41.710
  H       88.974    -785.828      37.481
  H       90.210    -791.679      39.798
  H       90.406    -789.167      42.373
  H       87.589    -789.137      41.986
  H       88.800    -784.332      39.252
  H       87.461    -791.557      41.846
  H       88.783    -784.931      40.884
  H       89.495    -791.594      44.155
  H       90.100    -793.739      43.464
  H       88.321    -793.784      43.345
  P       85.657    -792.220      43.590
  C       84.581    -789.874      43.229
  O       84.563    -791.265      42.919
  O       85.092    -792.488      45.066
  O       85.969    -793.483      42.857
  H       84.610    -793.333      45.087
  H       85.615    -789.508      43.350
  H       84.031    -789.714      44.160
  H       84.108    -789.331      42.420
  H       93.511    -793.979      41.359
  H       92.191    -793.093      40.634
  H       92.688    -794.627      39.961

 3  4  5  6  7  8  9  10  11  12  23  26  30  31  33  0
 6-311+G(2d,p)
 ****
 35  36  37  38 0
 6-311+G(2d,p)
 ****
 1  2  13  14  15  16  17  18  19  20  21  22  24  25  27  28  29 0
 3-21G
 ****
 32  34  39  40  41  42  43  44  45  46  47  48  49 0
 3-21G
 ****


