%nproc=1
%NoSave
%Mem=1900MB
#P OB98/GEN NMR

erre ene a

0 1
  C      393.715     780.149     312.055
  O      393.073     779.294     312.987
  H      393.599     779.722     311.052
  H      394.786     780.215     312.279
  H      393.272     781.143     312.066
  P      392.963     779.764     314.514
  C      394.612     780.458     316.373
  O      394.459     779.949     315.055
  C      396.000     780.085     316.915
  O      397.028     780.610     316.060
  C      396.271     780.630     318.318
  O      395.600     779.879     319.300
  C      397.793     780.527     318.358
  O      398.207     779.185     318.675
  C      398.181     780.889     316.904
  N      398.610     782.284     316.764
  C      399.953     782.546     317.023
  O      400.754     781.681     317.393
  N      400.349     783.855     316.880
  C      399.526     784.913     316.620
  O      399.911     786.072     316.589
  C      398.118     784.581     316.377
  C      397.728     783.311     316.461
  O      392.078     778.936     315.384
  O      392.431     781.272     314.406
  H      398.008     779.054     319.623
  H      391.488     781.303     314.653
  H      401.307     784.059     317.079
  H      397.431     785.392     316.156
  H      396.686     783.042     316.281
  H      398.988     780.244     316.547
  H      398.232     781.181     319.110
  H      396.003     781.684     318.361
  H      396.080     778.984     316.908
  H      393.841     780.020     317.011
  H      394.491     781.552     316.354
  P      394.935     780.630     320.551
  C      395.611     782.477     322.202
  O      396.061     781.543     321.233
  O      394.167     779.752     321.495
  O      393.965     781.708     319.868
  H      393.038     781.542     320.150
  H      396.447     783.025     322.584
  H      395.130     781.956     323.003
  H      394.917     783.154     321.749

 6  7  8  9  10  11  12  13  14  15  16  26  31  32  33  34  35 0
 6-311+G(2d,p)
 ****
 36  37 0
 6-311+G(2d,p)
 ****
 1  2  3  4  5  17  18  19  20  21  22  23  24  25 0
 3-21G
 ****
 27  28  29  30  38  39  40  41  42  43  44  45 0
 3-21G
 ****


