%nproc=1
%NoSave
%Mem=1900MB
#P OB98/GEN NMR

erre ene a

0 1
  C      -67.511     250.655    -275.615
  O      -68.570     249.984    -274.962
  H      -67.256     251.571    -275.077
  H      -66.634     250.000    -275.628
  H      -67.790     250.891    -276.645
  P      -69.962     250.772    -274.841
  C      -71.522     248.695    -274.939
  O      -71.046     249.863    -275.599
  C      -72.108     247.731    -275.965
  O      -71.091     247.334    -276.913
  C      -72.646     246.435    -275.371
  O      -73.946     246.592    -274.831
  C      -72.665     245.549    -276.605
  O      -73.800     245.885    -277.425
  C      -71.362     245.961    -277.306
  N      -68.462     241.990    -278.721
  C      -69.544     242.562    -279.287
  N      -70.262     243.614    -278.844
  C      -69.762     244.081    -277.690
  C      -68.669     243.596    -276.989
  C      -67.997     242.497    -277.554
  N      -66.902     241.899    -276.972
  N      -68.478     244.314    -275.824
  C      -69.418     245.235    -275.842
  N      -70.225     245.131    -276.942
  O      -69.777     252.017    -275.833
  O      -70.353     251.192    -273.464
  H      -74.593     245.602    -276.931
  H      -70.409     252.725    -275.602
  H      -69.880     242.115    -280.218
  H      -69.555     245.997    -275.084
  H      -71.447     245.940    -278.396
  H      -72.742     244.487    -276.369
  H      -71.951     246.010    -274.635
  H      -72.893     248.260    -276.520
  H      -72.299     248.981    -274.225
  H      -66.612     241.015    -277.359
  H      -66.647     242.177    -276.035
  H      -70.693     248.225    -274.400
  P      -74.061     246.865    -273.253
  C      -75.561     248.990    -273.177
  O      -74.245     248.449    -273.095
  O      -72.574     246.606    -272.730
  O      -75.069     246.020    -272.545
  H      -72.576     246.335    -271.791
  H      -75.518     250.052    -273.053
  H      -76.170     248.565    -272.407
  H      -75.983     248.759    -274.133

 6  7  8  9  10  11  12  13  14  15  25  28  32  33  34  35 0
 6-311+G(2d,p)
 ****
 36  39  40 0
 6-311+G(2d,p)
 ****
 1  2  3  4  5  16  17  18  19  20  21  22  23  24 0
 3-21G
 ****
 26  27  29  30  31  37  38  41  42  43  44  45  46  47 0
 3-21G
 ****
 48 0
 3-21G
 ****


