%nproc=1
%NoSave
%Mem=1900MB
#P OB98/GEN NMR

erre ene a

0 1
  C      497.212    -290.929    -627.169
  O      496.146    -290.777    -626.248
  H      498.078    -290.376    -626.793
  H      496.931    -290.508    -628.138
  H      497.482    -291.982    -627.278
  P      494.779    -291.568    -626.513
  C      495.087    -293.200    -624.549
  O      494.995    -293.064    -625.958
  C      494.038    -294.187    -624.040
  O      494.269    -295.479    -624.655
  C      494.065    -294.378    -622.514
  O      492.722    -294.522    -622.050
  C      494.811    -295.689    -622.339
  O      494.452    -296.356    -621.131
  C      494.399    -296.453    -623.602
  N      496.426    -300.865    -622.201
  C      495.375    -300.145    -621.652
  N      494.799    -300.668    -620.546
  N      494.942    -299.016    -622.139
  C      495.606    -298.625    -623.249
  C      496.653    -299.240    -623.890
  C      497.139    -300.478    -623.329
  O      498.066    -301.155    -623.768
  N      497.074    -298.509    -624.976
  C      496.283    -297.455    -624.991
  N      495.382    -297.470    -623.959
  O      494.255    -291.498    -627.911
  O      493.753    -290.930    -625.462
  H      493.489    -296.541    -621.178
  H      493.177    -290.278    -625.894
  H      496.723    -301.723    -621.779
  H      496.321    -296.653    -625.711
  H      493.439    -296.965    -623.480
  H      495.889    -295.505    -622.325
  H      495.069    -301.543    -620.127
  H      494.555    -293.554    -621.991
  H      494.014    -300.171    -620.140
  H      493.052    -293.847    -624.372
  H      494.924    -292.215    -624.095
  H      496.094    -293.548    -624.285
  P      492.298    -293.797    -620.693
  C      490.226    -292.736    -621.799
  O      491.422    -292.505    -621.063
  O      493.399    -293.560    -619.711
  O      491.198    -294.796    -620.083
  H      491.215    -294.737    -619.110
  H      489.734    -291.803    -621.983
  H      489.579    -293.376    -621.236
  H      490.466    -293.203    -622.732

 6  7  8  9  10  11  12  13  14  15  26  29  33  34 0
 6-311+G(2d,p)
 ****
 36  38  39  40  41 0
 6-311+G(2d,p)
 ****
 1  2  3  4  5  16  17  18  19  20  21  22  23  24  25 0
 3-21G
 ****
 27  28  30  31  32  35  37  42  43  44  45  46  47 0
 3-21G
 ****
 48  49 0
 3-21G
 ****


