%nproc=1
%NoSave
%Mem=1900MB
#P OB98/GEN NMR

erre ene a

0 1
  C      -37.334    -839.462      74.449
  O      -37.762    -838.409      75.285
  H      -37.193    -840.359      75.059
  H      -36.375    -839.207      73.975
  H      -38.090    -839.666      73.679
  P      -38.189    -837.036      74.572
  C      -40.348    -836.688      76.035
  O      -39.071    -836.207      75.617
  C      -40.689    -836.141      77.416
  O      -39.739    -836.589      78.410
  C      -40.629    -834.627      77.513
  O      -41.689    -833.986      76.821
  C      -40.678    -834.448      79.032
  O      -42.016    -834.574      79.528
  C      -39.791    -835.622      79.499
  N      -38.461    -835.195      79.899
  C      -38.199    -835.192      81.284
  O      -39.062    -835.549      82.072
  N      -36.971    -834.751      81.717
  C      -36.079    -834.391      80.867
  N      -34.883    -833.956      81.372
  C      -36.287    -834.401      79.401
  C      -37.498    -834.798      78.999
  O      -39.282    -837.527      73.502
  O      -37.063    -836.250      73.985
  H      -42.316    -835.474      79.296
  H      -39.999    -838.061      73.897
  H      -35.496    -834.089      78.730
  H      -37.732    -834.836      77.944
  H      -40.262    -836.134      80.355
  H      -40.321    -833.456      79.332
  H      -39.660    -834.258      77.151
  H      -41.686    -836.518      77.698
  H      -34.773    -833.950      82.393
  H      -40.361    -837.784      76.037
  H      -34.112    -833.620      80.810
  H      -41.088    -836.346      75.292
  P      -41.382    -832.949      75.636
  C      -43.464    -833.158      74.133
  O      -42.823    -832.418      75.147
  O      -40.521    -833.475      74.547
  O      -40.782    -831.675      76.403
  H      -41.389    -831.275      77.059
  H      -44.405    -832.704      73.901
  H      -43.625    -834.161      74.471
  H      -42.849    -833.171      73.258

 6  7  8  9  10  11  12  13  14  15  16  26  30  31  32  33  35 0
 6-311+G(2d,p)
 ****
 37  38 0
 6-311+G(2d,p)
 ****
 1  2  3  4  5  17  18  19  20  21  22  23  24  25 0
 3-21G
 ****
 27  28  29  34  36  39  40  41  42  43  44  45  46 0
 3-21G
 ****


