%nproc=1
%NoSave
%Mem=1900MB
#P OB98/GEN NMR

erre ene a

0 1
  C       42.769    -301.262     209.750
  O       41.913    -302.164     209.078
  H       43.243    -300.609     209.010
  H       43.551    -301.814     210.280
  H       42.210    -300.641     210.456
  P       40.894    -303.052     209.938
  C       38.734    -301.687     210.295
  O       39.415    -302.631     209.478
  C       37.681    -300.930     209.483
  O       38.343    -300.285     208.351
  C       36.562    -301.826     208.908
  O       35.363    -301.039     208.864
  C       37.093    -302.093     207.511
  O       36.106    -302.631     206.671
  C       37.632    -300.703     207.166
  N       38.500    -300.691     205.994
  C       37.887    -300.630     204.745
  O       36.668    -300.563     204.582
  N       38.732    -300.656     203.666
  C       40.093    -300.743     203.715
  O       40.803    -300.742     202.715
  C       40.681    -300.836     205.063
  C       39.870    -300.804     206.123
  O       41.120    -303.054     211.413
  O       41.056    -304.519     209.316
  H       41.664    -305.045     209.870
  H       35.285    -302.097     206.721
  H       38.304    -300.612     202.754
  H       41.756    -300.926     205.133
  H       40.267    -300.872     207.131
  H       36.812    -299.994     207.014
  H       37.904    -302.828     207.550
  H       36.390    -302.726     209.505
  H       37.263    -300.126     210.101
  H       39.470    -300.985     210.697
  H       38.253    -302.215     211.128
  P       34.008    -301.458     209.614
  C       34.167    -301.760     212.172
  O       34.013    -300.843     211.100
  O       33.732    -302.927     209.582
  O       32.841    -300.651     208.870
  H       32.034    -301.204     208.841
  H       34.154    -301.229     213.101
  H       35.099    -302.276     212.069
  H       33.364    -302.467     212.154

 6  7  8  9  10  11  12  13  14  15  16  27  31  32  33  34  35 0
 6-311+G(2d,p)
 ****
 36  37 0
 6-311+G(2d,p)
 ****
 1  2  3  4  5  17  18  19  20  21  22  23  24  25 0
 3-21G
 ****
 26  28  29  30  38  39  40  41  42  43  44  45 0
 3-21G
 ****


