%nproc=1
%NoSave
%Mem=1900MB
#P OB98/GEN NMR

erre ene a

0 1
  C      792.458     325.029     290.497
  O      793.820     324.679     290.685
  P      794.987     325.315     289.780
  C      793.809     324.277     287.717
  O      795.012     324.419     288.429
  C      794.004     323.326     286.529
  O      792.730     323.177     285.838
  C      795.034     323.801     285.507
  O      795.701     322.630     284.995
  C      794.182     324.447     284.433
  O      794.844     324.514     283.166
  C      792.953     323.522     284.456
  N      791.767     324.157     283.883
  C      791.650     324.168     282.477
  O      792.529     323.685     281.771
  N      790.530     324.732     281.926
  C      789.643     325.316     282.675
  N      788.525     325.815     282.097
  C      789.789     325.428     284.159
  C      790.842     324.811     284.673
  O      796.298     325.466     290.450
  O      794.359     326.682     289.236
  H      795.597     325.131     283.247
  H      794.473     327.437     289.875
  H      789.047     325.945     284.742
  H      791.024     324.806     285.742
  H      793.160     322.586     283.930
  H      793.913     325.467     284.727
  H      795.786     324.478     285.927
  H      794.271     322.338     286.926
  H      788.383     325.566     281.116
  H      793.519     325.261     287.327
  H      787.681     325.977     282.622
  H      793.019     323.918     288.382
  P      797.223     322.364     285.434
  C      798.126     322.858     283.041
  O      798.050     321.943     284.120
  O      797.084     320.954     286.217
  O      797.835     323.392     286.327
  H      797.826     320.886     286.847
  H      798.726     322.409     282.242
  H      798.596     323.778     283.370
  H      797.118     323.063     282.650
  H      791.852     324.495     291.199
  H      792.159     324.775     289.502
  H      792.336     326.081     290.648

 3  4  5  6  7  8  9  10  11  12  13  23  27  28  29  30  32 0
 6-311+G(2d,p)
 ****
 34  35 0
 6-311+G(2d,p)
 ****
 1  2  14  15  16  17  18  19  20  21  22  24  25  26 0
 3-21G
 ****
 31  33  36  37  38  39  40  41  42  43  44  45  46 0
 3-21G
 ****


