%nproc=1
%NoSave
%Mem=1900MB
#P OB98/GEN NMR

erre ene a

0 1
  C      -68.195     609.237       0.413
  O      -69.164     610.259       0.318
  H      -68.070     608.971       1.466
  H      -67.232     609.588       0.036
  H      -68.515     608.349      -0.140
  P      -69.517     610.876      -1.121
  C      -69.182     613.362      -0.564
  O      -70.134     612.335      -0.817
  C      -69.373     613.955       0.833
  O      -69.200     612.920       1.835
  C      -68.383     615.085       1.164
  O      -69.079     616.199       1.736
  C      -67.468     614.467       2.213
  O      -66.847     615.434       3.052
  C      -68.444     613.508       2.912
  N      -67.747     612.509       3.710
  C      -67.785     612.702       5.097
  O      -68.393     613.658       5.573
  N      -67.095     611.832       5.908
  C      -66.384     610.882       5.370
  N      -65.703     610.070       6.229
  C      -66.294     610.664       3.909
  C      -66.992     611.505       3.149
  O      -70.364     610.001      -1.986
  O      -68.101     611.229      -1.777
  H      -66.126     614.992       3.555
  H      -68.202     611.271      -2.755
  H      -65.684     609.865       3.521
  H      -66.986     611.425       2.060
  H      -69.142     614.054       3.558
  H      -66.672     613.896       1.712
  H      -67.817     615.436       0.295
  H      -70.412     614.304       0.927
  H      -65.793     610.262       7.218
  H      -69.293     614.139      -1.328
  H      -65.101     609.324       5.931
  H      -68.176     612.929      -0.632
  P      -68.951     617.598       0.966
  C      -67.791     618.923       2.873
  O      -68.953     618.771       2.062
  O      -70.368     617.750       0.232
  O      -67.819     617.635      -0.007
  H      -70.253     617.648      -0.735
  H      -67.934     619.737       3.552
  H      -66.945     619.123       2.250
  H      -67.622     618.023       3.426

 6  7  8  9  10  11  12  13  14  15  16  26  30  31  32  33  35 0
 6-311+G(2d,p)
 ****
 37  38 0
 6-311+G(2d,p)
 ****
 1  2  3  4  5  17  18  19  20  21  22  23  24  25 0
 3-21G
 ****
 27  28  29  34  36  39  40  41  42  43  44  45  46 0
 3-21G
 ****


