%nproc=1
%NoSave
%Mem=1900MB
#P OB98/GEN NMR

erre ene a

0 1
  C       34.760    -203.218     -99.071
  O       34.410    -203.070    -100.437
  P       32.879    -203.286    -100.852
  C       31.400    -205.284    -101.611
  O       32.636    -204.861    -101.050
  C       31.372    -206.802    -101.792
  O       31.725    -207.447    -100.541
  C       30.005    -207.344    -102.215
  O       30.190    -208.480    -103.076
  C       29.407    -207.853    -100.917
  O       28.412    -208.847    -101.152
  C       30.663    -208.365    -100.210
  N       29.075    -211.310     -96.420
  C       29.358    -211.643     -97.731
  N       29.101    -212.917     -98.096
  N       29.857    -210.805     -98.600
  C       30.058    -209.563     -98.094
  C       29.832    -209.118     -96.811
  C       29.269    -210.051     -95.861
  O       28.967    -209.813     -94.696
  N       30.192    -207.803     -96.665
  C       30.593    -207.436     -97.866
  N       30.499    -208.460     -98.774
  O       32.829    -202.708    -102.347
  O       31.891    -202.591     -99.979
  H       27.965    -209.004    -100.299
  H       32.384    -201.840    -102.349
  H       28.681    -211.988     -95.791
  H       30.939    -206.446     -98.136
  H       30.956    -209.355    -100.580
  H       28.946    -207.026    -100.367
  H       28.654    -213.592     -97.493
  H       29.359    -206.615    -102.718
  H       29.258    -213.176     -99.061
  H       32.143    -207.080    -102.523
  H       31.267    -204.804    -102.582
  H       30.577    -204.966    -100.961
  P       29.391    -208.444    -104.469
  C       27.017    -209.230    -105.199
  O       27.910    -208.957    -104.137
  O       30.034    -209.656    -105.295
  O       29.484    -207.145    -105.197
  H       29.940    -209.499    -106.253
  H       26.763    -210.294    -105.178
  H       27.446    -208.989    -106.175
  H       26.108    -208.644    -105.057
  H       35.809    -203.045     -98.951
  H       34.523    -204.210     -98.748
  H       34.212    -202.511     -98.484

 3  4  5  6  7  8  9  10  11  12  23  26  30  31 0
 6-311+G(2d,p)
 ****
 33  35  36  37  38 0
 6-311+G(2d,p)
 ****
 1  2  13  14  15  16  17  18  19  20  21  22  24  25 0
 3-21G
 ****
 27  28  29  32  34  39  40  41  42  43  44  45  46  47  48  49 0
 3-21G
 ****


