%nproc=1
%NoSave
%Mem=1900MB
#P OB98/GEN NMR

erre ene a

0 1
  C     -105.563     -52.801    -212.891
  O     -105.565     -53.895    -213.788
  H     -104.758     -52.927    -212.163
  H     -105.383     -51.882    -213.456
  H     -106.523     -52.715    -212.379
  P     -106.106     -55.299    -213.230
  C     -108.312     -56.618    -213.605
  O     -107.676     -55.346    -213.568
  C     -109.722     -56.490    -214.175
  O     -110.533     -55.716    -213.244
  C     -109.793     -55.799    -215.547
  O     -110.789     -56.458    -216.339
  C     -110.283     -54.400    -215.204
  O     -110.955     -53.770    -216.289
  C     -111.180     -54.681    -214.006
  N     -114.636     -51.230    -212.585
  C     -114.762     -52.451    -213.149
  N     -113.786     -53.338    -213.447
  C     -112.589     -52.878    -213.037
  C     -112.303     -51.659    -212.448
  C     -113.402     -50.797    -212.234
  N     -113.278     -49.526    -211.724
  N     -110.945     -51.530    -212.229
  C     -110.416     -52.640    -212.705
  N     -111.367     -53.482    -213.210
  O     -106.069     -55.075    -211.641
  O     -105.324     -56.500    -213.642
  H     -111.245     -52.879    -216.008
  H     -105.189     -55.314    -211.299
  H     -115.774     -52.754    -213.403
  H     -109.362     -52.866    -212.743
  H     -112.176     -55.044    -214.300
  H     -109.427     -53.774    -214.918
  H     -108.839     -55.785    -216.085
  H     -110.167     -57.495    -214.228
  H     -108.373     -57.015    -212.586
  H     -114.104     -48.947    -211.710
  H     -112.353     -49.153    -211.562
  H     -107.713     -57.303    -214.214
  P     -110.281     -57.543    -217.408
  C     -108.309     -59.147    -216.856
  O     -109.663     -58.791    -216.613
  O     -108.998     -56.842    -218.058
  O     -111.300     -57.889    -218.442
  H     -108.905     -57.102    -218.992
  H     -108.049     -59.993    -216.254
  H     -107.673     -58.323    -216.607
  H     -108.185     -59.393    -217.890

 6  7  8  9  10  11  12  13  14  15  25  28  32  33  34  35 0
 6-311+G(2d,p)
 ****
 36  39  40 0
 6-311+G(2d,p)
 ****
 1  2  3  4  5  16  17  18  19  20  21  22  23  24 0
 3-21G
 ****
 26  27  29  30  31  37  38  41  42  43  44  45  46  47 0
 3-21G
 ****
 48 0
 3-21G
 ****


