%nproc=1
%NoSave
%Mem=1900MB
#P OB98/GEN NMR

erre ene a

0 1
  C       34.602     -11.375       7.068
  O       34.674     -10.268       7.943
  H       35.309     -11.218       6.249
  H       33.597     -11.460       6.648
  H       34.868     -12.299       7.587
  P       33.847     -10.313       9.315
  C       31.972      -8.542       9.356
  O       32.350      -9.858       8.973
  C       32.576      -7.527       8.389
  O       32.345      -7.940       7.024
  C       31.976      -6.132       8.506
  O       32.475      -5.454       9.642
  C       32.388      -5.531       7.172
  O       33.748      -5.072       7.212
  C       32.240      -6.740       6.223
  N       30.989      -6.719       5.466
  C       30.730      -7.826       4.665
  O       31.506      -8.774       4.550
  N       29.551      -7.795       3.968
  C       28.685      -6.743       3.907
  O       27.686      -6.731       3.195
  C       29.022      -5.590       4.754
  C       30.138      -5.631       5.484
  O       34.473      -9.609      10.471
  O       33.685     -11.881       9.604
  H       33.823      -4.503       8.003
  H       34.295     -12.143      10.319
  H       29.353      -8.582       3.371
  H       28.352      -4.742       4.744
  H       30.407      -4.788       6.110
  H       33.071      -6.767       5.509
  H       31.770      -4.676       6.896
  H       30.883      -6.195       8.542
  H       33.662      -7.499       8.553
  H       32.346      -8.349      10.367
  H       30.879      -8.473       9.361
  P       31.649      -4.236      10.271
  C       32.821      -1.971       9.956
  O       31.944      -2.935       9.383
  O       31.811      -4.047      11.742
  O       30.129      -4.582       9.909
  H       29.614      -4.678      10.732
  H       32.943      -1.152       9.278
  H       33.773      -2.422      10.145
  H       32.407      -1.614      10.876

 6  7  8  9  10  11  12  13  14  15  16  26  31  32  33  34  35 0
 6-311+G(2d,p)
 ****
 36  37 0
 6-311+G(2d,p)
 ****
 1  2  3  4  5  17  18  19  20  21  22  23  24  25 0
 3-21G
 ****
 27  28  29  30  38  39  40  41  42  43  44  45 0
 3-21G
 ****


