%nproc=1
%NoSave
%Mem=1900MB
#P OB98/GEN NMR

erre ene a

0 1
  C     -183.543    -364.563    -105.826
  O     -182.947    -365.602    -106.582
  H     -182.784    -364.124    -105.173
  H     -184.354    -364.949    -105.203
  H     -183.927    -363.784    -106.492
  P     -183.894    -366.505    -107.507
  C     -182.597    -368.707    -107.091
  O     -182.968    -367.702    -108.031
  C     -181.495    -369.587    -107.673
  O     -181.928    -370.169    -108.920
  C     -180.219    -368.819    -107.994
  O     -179.494    -368.532    -106.816
  C     -179.550    -369.771    -108.964
  O     -178.887    -370.836    -108.272
  C     -180.760    -370.300    -109.767
  N     -180.951    -369.597    -111.030
  C     -180.707    -370.344    -112.190
  O     -180.363    -371.522    -112.112
  N     -180.842    -369.722    -113.409
  C     -181.203    -368.477    -113.464
  N     -181.319    -367.922    -114.701
  C     -181.482    -367.660    -112.267
  C     -181.331    -368.275    -111.097
  O     -184.660    -365.799    -108.584
  O     -184.864    -367.229    -106.456
  H     -178.599    -371.468    -108.963
  H     -185.661    -366.689    -106.300
  H     -181.786    -366.628    -112.365
  H     -181.520    -367.749    -110.167
  H     -180.644    -371.368    -109.982
  H     -178.805    -369.262    -109.574
  H     -180.462    -367.896    -108.535
  H     -181.297    -370.405    -106.970
  H     -181.108    -368.519    -115.496
  H     -183.491    -369.305    -106.887
  H     -181.677    -366.995    -114.872
  H     -182.263    -368.254    -106.154
  P     -179.175    -367.017    -106.400
  C     -176.722    -367.666    -105.919
  O     -177.925    -367.106    -105.391
  O     -180.340    -366.228    -105.909
  O     -178.514    -366.409    -107.729
  H     -179.193    -366.244    -108.430
  H     -175.968    -367.672    -105.160
  H     -176.389    -367.078    -106.748
  H     -176.908    -368.668    -106.245

 6  7  8  9  10  11  12  13  14  15  16  26  30  31  32  33  35 0
 6-311+G(2d,p)
 ****
 37  38 0
 6-311+G(2d,p)
 ****
 1  2  3  4  5  17  18  19  20  21  22  23  24  25 0
 3-21G
 ****
 27  28  29  34  36  39  40  41  42  43  44  45  46 0
 3-21G
 ****


