%nproc=1
%NoSave
%Mem=1900MB
#P OB98/GEN NMR

erre ene a

0 1
  C      299.350    -191.887    -318.963
  O      300.750    -191.957    -318.671
  P      301.261    -193.133    -317.702
  C      301.228    -195.200    -319.279
  O      302.012    -194.239    -318.588
  C      301.944    -196.553    -319.311
  O      301.089    -197.604    -319.801
  C      303.165    -196.576    -320.224
  O      304.311    -196.025    -319.579
  C      303.348    -198.069    -320.437
  O      304.014    -198.651    -319.296
  C      301.903    -198.566    -320.509
  N      301.143    -201.783    -324.425
  C      301.709    -201.960    -323.212
  N      301.889    -201.053    -322.231
  C      301.404    -199.855    -322.595
  C      300.806    -199.523    -323.803
  C      300.678    -200.555    -324.748
  N      300.100    -200.370    -325.982
  N      300.440    -198.190    -323.822
  C      300.804    -197.729    -322.641
  N      301.397    -198.694    -321.868
  O      299.902    -193.860    -317.275
  O      302.015    -192.648    -316.510
  H      304.841    -198.152    -319.162
  H      299.973    -194.189    -316.361
  H      302.060    -202.963    -322.996
  H      300.655    -196.715    -322.301
  H      301.763    -199.541    -320.022
  H      303.964    -198.300    -321.312
  H      302.952    -196.082    -321.179
  H      302.251    -196.801    -318.286
  H      301.023    -194.859    -320.299
  H      300.020    -201.161    -326.597
  H      299.729    -199.458    -326.220
  H      300.252    -195.290    -318.784
  P      305.351    -195.220    -320.496
  C      303.929    -193.162    -321.194
  O      304.949    -193.678    -320.358
  O      304.900    -195.613    -321.984
  O      306.782    -195.556    -320.237
  H      305.672    -195.604    -322.581
  H      303.579    -192.218    -320.770
  H      303.082    -193.854    -321.253
  H      304.329    -192.976    -322.193
  H      299.163    -191.060    -319.615
  H      298.802    -191.755    -318.053
  H      299.039    -192.794    -319.439

 3  4  5  6  7  8  9  10  11  12  22  25  29  30  31  32 0
 6-311+G(2d,p)
 ****
 33  36  37 0
 6-311+G(2d,p)
 ****
 1  2  13  14  15  16  17  18  19  20  21  23  24  26 0
 3-21G
 ****
 27  28  34  35  38  39  40  41  42  43  44  45  46  47  48 0
 3-21G
 ****


