%nproc=1
%NoSave
%Mem=1900MB
#P OB98/GEN NMR

erre ene a

0 1
  C     -183.256      64.143     314.650
  O     -182.507      63.106     314.008
  P     -182.223      61.783     314.867
  C     -179.894      62.550     315.722
  O     -181.220      62.166     316.058
  C     -179.299      63.410     316.837
  O     -179.649      62.907     318.145
  C     -177.776      63.455     316.822
  O     -177.300      64.289     315.779
  C     -177.489      63.965     318.228
  O     -177.675      65.390     318.292
  C     -178.579      63.263     319.053
  N     -178.447      60.769     323.519
  C     -178.999      61.949     323.159
  N     -178.987      62.545     321.949
  C     -178.332      61.790     321.053
  C     -177.721      60.567     321.270
  C     -177.793      60.051     322.575
  N     -177.216      58.855     322.945
  N     -177.146      60.095     320.107
  C     -177.384      61.031     319.212
  N     -178.107      62.070     319.731
  O     -181.328      60.892     313.885
  O     -183.463      61.067     315.287
  H     -177.207      65.778     317.525
  H     -181.847      60.132     313.556
  H     -179.515      62.486     323.951
  H     -177.055      61.003     318.179
  H     -179.007      63.920     319.819
  H     -176.467      63.753     318.562
  H     -177.370      62.439     316.701
  H     -179.701      64.428     316.735
  H     -179.888      63.108     314.783
  H     -177.246      58.596     323.917
  H     -176.654      58.356     322.270
  H     -179.298      61.648     315.559
  P     -176.674      63.584     314.482
  C     -174.399      64.509     315.235
  O     -175.133      63.353     314.884
  O     -176.587      64.807     313.459
  O     -177.406      62.379     314.003
  H     -176.222      65.606     313.881
  H     -173.388      64.207     315.518
  H     -174.868      65.013     316.083
  H     -174.339      65.189     314.382
  H     -183.377      64.965     313.976
  H     -182.733      64.472     315.524
  H     -184.218      63.767     314.930

 3  4  5  6  7  8  9  10  11  12  22  25  29  30  31  32 0
 6-311+G(2d,p)
 ****
 33  36  37 0
 6-311+G(2d,p)
 ****
 1  2  13  14  15  16  17  18  19  20  21  23  24  26 0
 3-21G
 ****
 27  28  34  35  38  39  40  41  42  43  44  45  46  47  48 0
 3-21G
 ****


