%nproc=1
%NoSave
%Mem=1900MB
#P OB98/GEN NMR

erre ene a

0 1
  C     1018.778     217.788    -297.271
  O     1019.981     218.523    -297.359
  H     1018.519     217.368    -298.244
  H     1018.914     216.973    -296.560
  H     1017.970     218.438    -296.920
  P     1019.994     219.782    -298.355
  C     1019.298     221.266    -296.339
  O     1019.029     220.878    -297.681
  C     1019.667     222.742    -296.302
  O     1018.708     223.520    -297.053
  C     1019.674     223.356    -294.901
  O     1020.877     223.071    -294.198
  C     1019.568     224.825    -295.236
  O     1020.846     225.324    -295.681
  C     1018.564     224.815    -296.405
  N     1015.351     227.792    -293.767
  C     1016.689     227.875    -293.979
  N     1017.462     227.033    -294.693
  C     1016.743     226.029    -295.207
  C     1015.382     225.816    -295.066
  C     1014.672     226.760    -294.310
  N     1013.323     226.677    -294.078
  N     1015.001     224.654    -295.721
  C     1016.103     224.206    -296.269
  N     1017.186     224.989    -295.980
  O     1019.146     219.281    -299.610
  O     1021.342     220.295    -298.738
  H     1021.440     225.299    -294.906
  H     1019.354     219.823    -300.396
  H     1017.189     228.714    -293.521
  H     1016.176     223.313    -296.883
  H     1018.782     225.587    -297.147
  H     1019.267     225.444    -294.387
  H     1018.789     223.048    -294.322
  H     1020.645     222.865    -296.779
  H     1020.127     220.675    -295.949
  H     1012.943     227.290    -293.374
  H     1012.830     225.828    -294.353
  H     1018.400     221.082    -295.731
  P     1020.807     223.077    -292.595
  C     1020.575     220.485    -292.400
  O     1019.979     221.766    -292.190
  O     1019.810     224.279    -292.278
  O     1022.138     223.241    -291.917
  H     1019.992     224.657    -291.393
  H     1019.898     219.720    -292.080
  H     1021.482     220.417    -291.837
  H     1020.791     220.358    -293.440

 6  7  8  9  10  11  12  13  14  15  25  28  32  33  34  35 0
 6-311+G(2d,p)
 ****
 36  39  40 0
 6-311+G(2d,p)
 ****
 1  2  3  4  5  16  17  18  19  20  21  22  23  24 0
 3-21G
 ****
 26  27  29  30  31  37  38  41  42  43  44  45  46  47 0
 3-21G
 ****
 48 0
 3-21G
 ****


