%nproc=1
%NoSave
%Mem=1900MB
#P OB98/GEN NMR

erre ene a

0 1
  C      -63.212     446.527    -128.523
  O      -61.986     446.718    -129.213
  P      -60.816     445.643    -128.958
  C      -60.459     445.185    -131.494
  O      -60.855     444.664    -130.227
  C      -59.005     444.838    -131.783
  O      -58.861     443.414    -131.907
  C      -58.463     445.423    -133.084
  O      -58.073     446.777    -132.929
  C      -57.256     444.526    -133.317
  O      -56.142     444.996    -132.533
  C      -57.742     443.164    -132.802
  N      -56.826     438.765    -135.144
  C      -56.171     439.356    -134.079
  N      -55.137     438.660    -133.547
  N      -56.498     440.522    -133.581
  C      -57.569     441.084    -134.193
  C      -58.302     440.600    -135.248
  C      -57.898     439.334    -135.824
  O      -58.404     438.790    -136.800
  N      -59.335     441.442    -135.576
  C      -59.243     442.420    -134.688
  N      -58.179     442.254    -133.847
  O      -61.407     444.738    -127.777
  O      -59.484     446.216    -128.612
  H      -55.915     445.884    -132.863
  H      -60.674     444.326    -127.278
  H      -56.543     437.863    -135.473
  H      -59.938     443.250    -134.629
  H      -56.968     442.659    -132.206
  H      -56.926     444.522    -134.361
  H      -54.929     437.712    -133.805
  H      -59.183     445.292    -133.899
  H      -54.672     439.071    -132.744
  H      -58.393     445.166    -130.926
  H      -60.572     446.276    -131.478
  H      -61.113     444.771    -132.263
  P      -57.716     447.577    -134.283
  C      -59.768     449.169    -134.053
  O      -59.118     448.153    -134.809
  O      -57.377     446.408    -135.318
  O      -56.610     448.558    -134.146
  H      -56.773     446.740    -136.019
  H      -59.044     449.857    -133.606
  H      -60.366     448.700    -133.262
  H      -60.425     449.729    -134.714
  H      -63.894     447.309    -128.784
  H      -63.034     446.547    -127.468
  H      -63.632     445.581    -128.796

 3  4  5  6  7  8  9  10  11  12  23  26  30  31  33  0
 6-311+G(2d,p)
 ****
 35  36  37  38 0
 6-311+G(2d,p)
 ****
 1  2  13  14  15  16  17  18  19  20  21  22  24  25  27  28  29 0
 3-21G
 ****
 32  34  39  40  41  42  43  44  45  46  47  48  49 0
 3-21G
 ****


