%nproc=1
%NoSave
%Mem=1900MB
#P OB98/GEN NMR

erre ene a

0 1
  C     -200.547    -102.184      -2.330
  O     -201.832    -102.725      -2.630
  P     -202.914    -103.174      -1.549
  C     -202.791    -105.797      -1.691
  O     -202.498    -104.606      -0.973
  C     -202.739    -107.025      -0.769
  O     -201.407    -107.106      -0.174
  C     -203.744    -106.937       0.386
  O     -204.411    -108.167       0.655
  C     -202.917    -106.338       1.511
  O     -203.473    -106.555       2.799
  C     -201.543    -106.954       1.258
  N     -199.070    -105.337       5.421
  C     -200.257    -106.032       5.325
  N     -200.883    -106.329       6.485
  N     -200.795    -106.396       4.190
  C     -200.110    -105.969       3.107
  C     -198.930    -105.260       3.073
  C     -198.317    -104.908       4.335
  O     -197.255    -104.309       4.478
  N     -198.531    -105.018       1.784
  C     -199.472    -105.560       1.040
  N     -200.453    -106.160       1.799
  O     -204.343    -102.996      -1.942
  O     -202.633    -102.192      -0.298
  H     -204.422    -106.331       2.755
  H     -203.497    -102.046       0.136
  H     -198.688    -105.104       6.323
  H     -199.489    -105.563      -0.044
  H     -201.444    -107.942       1.710
  H     -202.886    -105.251       1.355
  H     -200.590    -105.976       7.382
  H     -204.562    -106.253       0.137
  H     -201.854    -106.639       6.399
  H     -202.894    -107.926      -1.371
  H     -202.022    -105.880      -2.467
  H     -203.757    -105.720      -2.191
  P     -205.972    -108.430       0.868
  C     -205.886    -108.488       3.431
  O     -206.402    -107.829       2.289
  O     -206.099    -110.009       1.095
  O     -206.838    -108.001      -0.271
  H     -206.649    -110.401       0.387
  H     -206.449    -108.161       4.310
  H     -204.834    -108.216       3.566
  H     -205.978    -109.571       3.330
  H     -200.028    -101.971      -3.241
  H     -199.986    -102.893      -1.758
  H     -200.663    -101.282      -1.766

 3  4  5  6  7  8  9  10  11  12  23  26  30  31 0
 6-311+G(2d,p)
 ****
 33  35  36  37  38 0
 6-311+G(2d,p)
 ****
 1  2  13  14  15  16  17  18  19  20  21  22  24  25 0
 3-21G
 ****
 27  28  29  32  34  39  40  41  42  43  44  45  46  47  48  49 0
 3-21G
 ****


