%nproc=1
%NoSave
%Mem=1900MB
#P OB98/GEN NMR

erre ene a

0 1
  C     -191.622    -931.986      70.223
  O     -190.548    -931.094      70.058
  H     -191.535    -932.516      71.176
  H     -192.559    -931.419      70.221
  H     -191.648    -932.706      69.399
  P     -189.067    -931.729      70.066
  C     -188.206    -930.300      68.080
  O     -188.070    -930.618      69.465
  C     -188.120    -928.789      67.894
  O     -189.449    -928.220      68.044
  C     -187.175    -928.062      68.869
  O     -186.170    -927.343      68.158
  C     -188.068    -927.051      69.586
  O     -187.440    -925.785      69.790
  C     -189.272    -926.942      68.661
  N     -191.595    -923.035      70.995
  C     -190.636    -923.063      70.036
  N     -190.133    -924.133      69.377
  C     -190.753    -925.264      69.775
  C     -191.760    -925.389      70.722
  C     -192.171    -924.207      71.365
  N     -193.111    -924.183      72.364
  N     -192.128    -926.718      70.852
  C     -191.329    -927.388      70.057
  N     -190.466    -926.553      69.394
  O     -189.142    -932.846      68.910
  O     -188.643    -932.321      71.372
  H     -188.028    -925.265      70.369
  H     -188.766    -933.680      69.239
  H     -190.212    -922.103      69.777
  H     -191.303    -928.453      69.946
  H     -189.110    -926.199      67.861
  H     -188.359    -927.463      70.561
  H     -186.707    -928.753      69.584
  H     -187.802    -928.589      66.858
  H     -189.180    -930.653      67.720
  H     -193.261    -923.318      72.848
  H     -193.476    -925.065      72.711
  H     -187.417    -930.805      67.522
  P     -184.731    -927.185      68.892
  C     -184.051    -929.618      68.284
  O     -183.728    -928.238      68.219
  O     -185.005    -927.805      70.347
  O     -184.257    -925.768      68.960
  H     -184.396    -927.400      70.995
  H     -183.289    -930.186      67.793
  H     -184.990    -929.788      67.800
  H     -184.118    -929.921      69.308

 6  7  8  9  10  11  12  13  14  15  25  28  32  33  34  35 0
 6-311+G(2d,p)
 ****
 36  39  40 0
 6-311+G(2d,p)
 ****
 1  2  3  4  5  16  17  18  19  20  21  22  23  24 0
 3-21G
 ****
 26  27  29  30  31  37  38  41  42  43  44  45  46  47  48 0
 3-21G
 ****


