%nproc=1
%NoSave
%Mem=1900MB
#P OB98/GEN NMR

erre ene a

0 1
  C     -259.665    -180.543    -124.806
  O     -260.600    -180.887    -125.816
  P     -262.000    -180.096    -125.830
  C     -263.913    -181.565    -124.876
  O     -262.837    -180.676    -124.592
  C     -263.601    -182.965    -124.358
  O     -263.110    -182.886    -123.007
  C     -264.798    -183.901    -124.302
  O     -265.090    -184.469    -125.572
  C     -264.300    -184.958    -123.328
  O     -263.471    -185.905    -124.025
  C     -263.458    -184.129    -122.344
  N     -263.826    -185.163    -117.398
  C     -262.972    -185.686    -118.354
  N     -262.073    -186.597    -117.922
  N     -263.003    -185.351    -119.618
  C     -263.928    -184.402    -119.897
  C     -264.831    -183.810    -119.037
  C     -264.823    -184.231    -117.655
  O     -265.596    -183.853    -116.778
  N     -265.602    -182.881    -119.688
  C     -265.142    -182.884    -120.926
  N     -264.147    -183.811    -121.108
  O     -262.750    -180.708    -127.104
  O     -261.886    -178.611    -125.911
  H     -263.399    -186.696    -123.460
  H     -263.399    -180.064    -127.448
  H     -263.750    -185.448    -116.439
  H     -265.500    -182.232    -121.714
  H     -262.518    -184.637    -122.099
  H     -265.116    -185.526    -122.863
  H     -261.915    -186.796    -116.944
  H     -265.677    -183.396    -123.878
  H     -261.415    -186.960    -118.600
  H     -262.803    -183.392    -124.983
  H     -264.064    -181.611    -125.959
  H     -264.825    -181.178    -124.410
  P     -266.562    -185.086    -125.764
  C     -266.559    -187.665    -126.083
  O     -266.471    -186.576    -125.182
  O     -266.667    -185.291    -127.347
  O     -267.660    -184.230    -125.229
  H     -267.599    -185.265    -127.628
  H     -266.064    -187.438    -127.034
  H     -267.609    -187.903    -126.266
  H     -266.072    -188.530    -125.634
  H     -258.786    -181.143    -124.915
  H     -260.099    -180.718    -123.844
  H     -259.405    -179.509    -124.898

 3  4  5  6  7  8  9  10  11  12  23  26  30  31  33  0
 6-311+G(2d,p)
 ****
 35  36  37  38 0
 6-311+G(2d,p)
 ****
 1  2  13  14  15  16  17  18  19  20  21  22  24  25  27  28  29 0
 3-21G
 ****
 32  34  39  40  41  42  43  44  45  46  47  48  49 0
 3-21G
 ****


