%nproc=1
%NoSave
%Mem=1900MB
#P OB98/GEN NMR

erre ene a

0 1
  C      573.560     458.899     313.953
  O      573.837     459.857     312.951
  H      573.531     457.911     313.493
  H      572.584     459.108     314.402
  H      574.339     458.913     314.721
  P      574.105     461.362     313.449
  C      573.633     462.750     311.271
  O      574.582     462.163     312.142
  C      574.201     462.854     309.851
  O      575.411     463.647     309.890
  C      574.555     461.501     309.230
  O      574.238     461.550     307.834
  C      576.058     461.400     309.416
  O      576.654     460.516     308.474
  C      576.483     462.869     309.315
  N      577.753     463.133     309.986
  C      578.897     462.569     309.409
  O      578.797     461.879     308.397
  N      580.112     462.769     310.017
  C      580.172     463.414     311.138
  N      581.404     463.565     311.695
  C      578.978     463.982     311.810
  C      577.824     463.815     311.178
  O      575.449     461.188     314.300
  O      572.969     461.971     314.196
  H      576.169     459.657     308.510
  H      576.096     460.589     313.893
  H      579.081     464.502     312.755
  H      576.898     464.202     311.597
  H      576.577     463.163     308.259
  H      576.277     461.012     310.425
  H      574.032     460.660     309.688
  H      573.487     463.399     309.228
  H      582.191     463.146     311.220
  H      573.359     463.746     311.622
  H      581.559     464.002     312.596
  H      572.737     462.122     311.277
  P      573.056     460.634     307.265
  C      573.640     460.272     304.782
  O      572.830     460.974     305.712
  O      571.815     460.597     308.092
  O      573.730     459.176     307.196
  H      573.058     458.521     307.464
  H      573.396     460.585     303.788
  H      573.464     459.221     304.878
  H      574.671     460.481     304.978

 6  7  8  9  10  11  12  13  14  15  16  26  30  31  32  33  35 0
 6-311+G(2d,p)
 ****
 37  38 0
 6-311+G(2d,p)
 ****
 1  2  3  4  5  17  18  19  20  21  22  23  24  25 0
 3-21G
 ****
 27  28  29  34  36  39  40  41  42  43  44  45  46 0
 3-21G
 ****


