%nproc=1
%NoSave
%Mem=1900MB
#P OB98/GEN NMR

erre ene a

0 1
  C     -296.210      93.790    -162.873
  O     -295.694      92.478    -162.990
  H     -295.510      94.488    -163.344
  H     -296.321      94.057    -161.821
  H     -297.177      93.863    -163.383
  P     -296.576      91.295    -162.355
  C     -295.734      89.507    -164.040
  O     -295.786      89.929    -162.681
  C     -294.363      88.900    -164.353
  O     -293.411      89.983    -164.577
  C     -293.799      88.021    -163.229
  O     -293.113      86.910    -163.813
  C     -292.784      88.929    -162.556
  O     -291.789      88.193    -161.851
  C     -292.262      89.707    -163.760
  N     -288.673      91.568    -160.763
  C     -289.083      90.266    -160.966
  N     -288.438      89.304    -160.267
  N     -290.042      89.932    -161.791
  C     -290.575      90.987    -162.447
  C     -290.270      92.324    -162.321
  C     -289.220      92.683    -161.392
  O     -288.832      93.816    -161.147
  N     -291.068      93.093    -163.136
  C     -291.855      92.221    -163.748
  N     -291.591      90.934    -163.365
  O     -297.854      91.222    -163.319
  O     -296.958      91.473    -160.926
  H     -291.016      88.775    -161.726
  H     -298.641      90.920    -162.828
  H     -287.936      91.774    -160.109
  H     -292.622      92.474    -164.468
  H     -291.542      89.127    -164.353
  H     -293.290      89.596    -161.845
  H     -287.667      89.482    -159.637
  H     -294.559      87.655    -162.536
  H     -288.717      88.337    -160.408
  H     -294.436      88.344    -165.292
  H     -295.908      90.374    -164.688
  H     -296.516      88.763    -164.215
  P     -293.832      85.478    -163.751
  C     -292.972      84.712    -166.081
  O     -293.022      84.451    -164.690
  O     -295.189      85.724    -164.562
  O     -294.105      84.995    -162.363
  H     -295.945      85.733    -163.950
  H     -292.403      83.948    -166.567
  H     -292.510      85.662    -166.249
  H     -293.966      84.723    -166.478

 6  7  8  9  10  11  12  13  14  15  26  29  33  34 0
 6-311+G(2d,p)
 ****
 36  38  39  40  41 0
 6-311+G(2d,p)
 ****
 1  2  3  4  5  16  17  18  19  20  21  22  23  24  25 0
 3-21G
 ****
 27  28  30  31  32  35  37  42  43  44  45  46  47 0
 3-21G
 ****
 48  49 0
 3-21G
 ****


