%nproc=1
%NoSave
%Mem=1900MB
#P OB98/GEN NMR

erre ene a

0 1
  C      306.909    -185.924    -463.755
  O      307.230    -185.329    -462.486
  P      307.632    -183.777    -462.477
  C      309.819    -182.372    -462.516
  O      309.240    -183.669    -462.453
  C      311.357    -182.441    -462.512
  O      311.841    -182.951    -461.236
  C      311.936    -183.352    -463.593
  O      313.226    -182.847    -463.982
  C      312.122    -184.672    -462.865
  O      313.043    -185.530    -463.547
  C      312.598    -184.148    -461.502
  N      314.879    -187.754    -458.791
  C      315.358    -186.981    -459.830
  N      316.657    -187.172    -460.172
  N      314.639    -186.092    -460.471
  C      313.371    -185.991    -459.994
  C      312.777    -186.705    -458.986
  C      313.579    -187.695    -458.303
  O      313.191    -188.424    -457.387
  N      311.463    -186.329    -458.810
  C      311.265    -185.388    -459.725
  N      312.413    -185.118    -460.436
  O      307.203    -183.300    -461.000
  O      306.948    -182.964    -463.521
  H      313.935    -185.110    -463.469
  H      306.419    -182.734    -461.055
  H      315.471    -188.429    -458.343
  H      310.340    -184.877    -459.900
  H      313.662    -183.886    -461.507
  H      311.166    -185.190    -462.772
  H      317.278    -187.797    -459.680
  H      311.299    -183.453    -464.492
  H      317.039    -186.584    -460.902
  H      311.754    -181.428    -462.628
  H      309.479    -181.763    -461.669
  H      309.451    -181.859    -463.413
  P      313.476    -182.615    -465.547
  C      314.416    -184.080    -467.484
  O      314.045    -184.000    -466.107
  O      314.753    -181.648    -465.583
  O      312.311    -182.042    -466.288
  H      314.763    -181.131    -466.406
  H      315.501    -184.040    -467.563
  H      313.978    -183.261    -468.064
  H      314.066    -185.020    -467.888
  H      306.661    -186.955    -463.613
  H      307.752    -185.846    -464.409
  H      306.074    -185.413    -464.188

 3  4  5  6  7  8  9  10  11  12  23  26  30  31 0
 6-311+G(2d,p)
 ****
 33  35  36  37  38 0
 6-311+G(2d,p)
 ****
 1  2  13  14  15  16  17  18  19  20  21  22  24  25 0
 3-21G
 ****
 27  28  29  32  34  39  40  41  42  43  44  45  46  47  48  49 0
 3-21G
 ****


