%nproc=1
%NoSave
%Mem=1900MB
#P OB98/GEN NMR

erre ene a

0 1
  C      -23.145     163.211     -67.813
  O      -22.091     162.753     -66.984
  P      -21.200     161.497     -67.417
  C      -21.301     158.945     -67.201
  O      -21.994     160.168     -66.984
  C      -22.234     157.744     -67.063
  O      -23.525     158.075     -67.643
  C      -21.743     156.461     -67.753
  O      -22.184     155.358     -66.952
  C      -22.502     156.472     -69.071
  O      -22.584     155.190     -69.678
  C      -23.842     157.046     -68.601
  N      -26.857     155.966     -72.598
  C      -26.184     155.168     -71.737
  N      -25.382     155.536     -70.714
  C      -25.300     156.873     -70.620
  C      -25.902     157.809     -71.450
  C      -26.723     157.308     -72.470
  N      -27.441     158.104     -73.340
  N      -25.533     159.094     -71.072
  C      -24.729     158.924     -70.041
  N      -24.614     157.600     -69.692
  O      -19.774     161.544     -66.971
  O      -21.301     161.476     -69.016
  H      -23.019     155.287     -70.547
  H      -20.464     161.787     -69.402
  H      -26.320     154.099     -71.880
  H      -24.212     159.713     -69.513
  H      -24.454     156.287     -68.104
  H      -22.008     157.155     -69.776
  H      -20.654     156.416     -67.898
  H      -22.401     157.556     -65.992
  H      -20.501     158.870     -66.453
  H      -28.106     157.643     -73.949
  H      -27.584     159.088     -73.104
  H      -20.839     158.950     -68.198
  P      -21.222     154.103     -66.712
  C      -20.579     152.059     -68.118
  O      -20.996     153.413     -68.141
  O      -21.641     153.173     -65.615
  O      -19.798     154.777     -66.400
  H      -19.216     154.128     -65.971
  H      -19.499     152.010     -67.932
  H      -20.790     151.605     -69.095
  H      -21.105     151.494     -67.339
  H      -23.619     164.054     -67.355
  H      -23.861     162.427     -67.945
  H      -22.751     163.498     -68.765

 3  4  5  6  7  8  9  10  11  12  22  25  29  30  31  32 0
 6-311+G(2d,p)
 ****
 33  36  37 0
 6-311+G(2d,p)
 ****
 1  2  13  14  15  16  17  18  19  20  21  23  24  26 0
 3-21G
 ****
 27  28  34  35  38  39  40  41  42  43  44  45  46  47  48 0
 3-21G
 ****


