%nproc=1
%NoSave
%Mem=1900MB
#P OB98/GEN NMR

erre ene a

0 1
  C       36.952     -70.042      93.492
  O       36.859     -69.962      92.085
  H       36.940     -69.029      93.902
  H       37.886     -70.529      93.783
  H       36.101     -70.596      93.894
  P       36.919     -71.346      91.275
  C       39.484     -71.273      91.677
  O       38.428     -71.510      90.757
  C       40.753     -70.906      90.916
  O       41.848     -70.726      91.843
  C       41.222     -71.975      89.938
  O       40.476     -71.965      88.734
  C       42.671     -71.565      89.737
  O       42.795     -70.535      88.743
  C       43.064     -71.037      91.134
  N       43.897     -71.986      91.865
  C       45.205     -72.119      91.409
  O       45.651     -71.488      90.450
  N       45.979     -73.034      92.067
  C       45.569     -73.838      93.091
  O       46.292     -74.691      93.590
  C       44.181     -73.643      93.542
  C       43.417     -72.747      92.912
  O       36.092     -71.022      89.944
  O       36.375     -72.528      92.004
  H       35.200     -71.412      90.004
  H       43.743     -70.300      88.710
  H       46.926     -73.152      91.744
  H       43.826     -74.262      94.357
  H       42.385     -72.601      93.214
  H       43.624     -70.098      91.043
  H       43.282     -72.403      89.401
  H       41.196     -72.962      90.414
  H       40.583     -69.953      90.396
  H       39.668     -72.179      92.263
  H       39.190     -70.467      92.358
  P       40.220     -73.358      87.981
  C       41.979     -73.273      86.032
  O       40.634     -73.131      86.448
  O       38.622     -73.404      87.951
  O       40.872     -74.525      88.639
  H       38.219     -72.527      87.833
  H       42.049     -73.082      84.982
  H       42.312     -74.269      86.237
  H       42.592     -72.575      86.563

 6  7  8  9  10  11  12  13  14  15  16  27  31  32  33  34  35 0
 6-311+G(2d,p)
 ****
 36  37 0
 6-311+G(2d,p)
 ****
 1  2  3  4  5  17  18  19  20  21  22  23  24  25 0
 3-21G
 ****
 26  28  29  30  38  39  40  41  42  43  44  45 0
 3-21G
 ****


