%nproc=1
%NoSave
%Mem=1900MB
#P OB98/GEN NMR

erre ene a

0 1
  C      369.705    -546.935       4.436
  O      369.112    -547.894       3.563
  P      367.529    -548.110       3.667
  C      366.838    -549.007       1.298
  O      367.126    -549.287       2.658
  C      368.134    -548.879       0.473
  O      368.832    -550.153       0.524
  C      367.936    -548.584      -1.008
  O      369.165    -548.083      -1.547
  C      367.670    -549.967      -1.566
  O      367.862    -550.013      -2.977
  C      368.629    -550.848      -0.731
  N      368.106    -552.210      -0.477
  C      367.458    -552.877      -1.514
  O      367.284    -552.397      -2.636
  N      366.965    -554.119      -1.215
  C      367.086    -554.769      -0.023
  O      366.552    -555.841       0.213
  C      367.902    -554.079       0.985
  C      368.357    -552.857       0.724
  O      366.923    -546.793       2.994
  O      367.041    -548.302       5.062
  H      367.847    -550.965      -3.231
  H      366.572    -546.195       3.677
  H      366.436    -554.585      -1.939
  H      368.083    -554.591       1.927
  H      368.949    -552.325       1.470
  H      369.596    -550.964      -1.232
  H      366.632    -550.256      -1.371
  H      367.116    -547.894      -1.227
  H      368.777    -548.131       0.937
  H      366.252    -548.090       1.226
  H      366.222    -549.809       0.881
  P      369.169    -546.594      -2.145
  C      371.408    -545.559      -1.428
  O      370.698    -546.239      -2.446
  O      368.405    -545.575      -1.366
  O      368.559    -546.802      -3.612
  H      368.237    -545.944      -3.960
  H      372.465    -545.830      -1.494
  H      371.038    -545.830      -0.431
  H      371.301    -544.481      -1.567
  H      370.759    -546.895       4.259
  H      369.525    -547.218       5.452
  H      369.276    -545.972       4.252

 3  4  5  6  7  8  9  10  11  12  13  23  28  29  30  31  32 0
 6-311+G(2d,p)
 ****
 33  34 0
 6-311+G(2d,p)
 ****
 1  2  14  15  16  17  18  19  20  21  22  24  25  26  27 0
 3-21G
 ****
 35  36  37  38  39  40  41  42  43  44  45 0
 3-21G
 ****


