%nproc=1
%NoSave
%Mem=1900MB
#P OB98/GEN NMR

erre ene a

0 1
  C      -10.743    -188.024     -29.463
  O      -11.239    -186.718     -29.149
  P      -10.690    -186.063     -27.787
  C      -12.520    -187.152     -26.306
  O      -11.129    -187.012     -26.567
  C      -12.769    -187.839     -24.954
  O      -12.235    -189.195     -24.951
  C      -12.132    -187.107     -23.761
  O      -13.009    -187.285     -22.639
  C      -10.863    -187.904     -23.525
  O      -10.335    -187.678     -22.219
  C      -11.379    -189.319     -23.792
  N       -9.268    -193.571     -22.071
  C      -10.269    -192.795     -21.521
  N      -10.821    -193.238     -20.372
  N      -10.692    -191.672     -22.055
  C      -10.069    -191.377     -23.231
  C       -9.077    -192.075     -23.879
  C       -8.596    -193.291     -23.255
  O       -7.716    -194.022     -23.703
  N       -8.720    -191.461     -25.065
  C       -9.463    -190.362     -25.083
  N      -10.328    -190.290     -24.023
  O      -11.609    -184.762     -27.613
  O       -9.235    -185.713     -27.832
  H       -9.530    -188.227     -22.125
  H      -11.128    -183.964     -27.901
  H       -8.970    -194.417     -21.604
  H       -9.422    -189.604     -25.850
  H      -11.981    -189.704     -22.959
  H      -10.091    -187.624     -24.257
  H      -10.583    -194.115     -19.935
  H      -11.937    -186.044     -23.930
  H      -11.595    -192.707     -19.970
  H      -13.859    -187.912     -24.801
  H      -12.994    -187.741     -27.097
  H      -12.990    -186.163     -26.337
  P      -14.406    -186.497     -22.645
  C      -13.662    -184.448     -21.238
  O      -14.064    -184.936     -22.503
  O      -15.039    -186.871     -21.223
  O      -15.334    -186.870     -23.759
  H      -16.004    -186.997     -21.316
  H      -13.045    -183.559     -21.386
  H      -13.080    -185.191     -20.683
  H      -14.547    -184.174     -20.653
  H      -11.174    -188.357     -30.384
  H      -11.007    -188.704     -28.680
  H       -9.678    -187.987     -29.560

 3  4  5  6  7  8  9  10  11  12  23  26  30  31 0
 6-311+G(2d,p)
 ****
 33  35  36  37  38 0
 6-311+G(2d,p)
 ****
 1  2  13  14  15  16  17  18  19  20  21  22  24  25 0
 3-21G
 ****
 27  28  29  32  34  39  40  41  42  43  44  45  46  47  48  49 0
 3-21G
 ****


