%nproc=1
%NoSave
%Mem=1900MB
#P OB98/GEN NMR

erre ene a

0 1
  C     -696.671     667.243      10.171
  O     -696.612     668.673      10.189
  P     -696.102     669.396       8.843
  C     -693.723     669.678       9.864
  O     -694.515     669.210       8.766
  C     -692.315     669.106       9.788
  O     -691.586     669.621       8.652
  C     -691.437     669.430      11.004
  O     -691.717     668.597      12.115
  C     -690.057     669.168      10.449
  O     -689.747     667.754      10.523
  C     -690.195     669.599       8.971
  N     -686.826     672.239       6.246
  C     -687.124     670.888       6.212
  N     -686.435     670.143       5.332
  N     -687.998     670.321       6.992
  C     -688.617     671.202       7.817
  C     -688.422     672.561       7.942
  C     -687.429     673.173       7.088
  O     -687.104     674.355       7.091
  N     -689.255     673.108       8.875
  C     -689.958     672.102       9.317
  N     -689.630     670.915       8.703
  O     -696.279     670.947       9.175
  O     -696.867     668.992       7.620
  H     -690.397     667.303       9.968
  H     -696.422     671.456       8.350
  H     -686.134     672.634       5.609
  H     -690.748     672.162      10.061
  H     -689.707     668.884       8.297
  H     -689.260     669.684      10.999
  H     -685.801     670.525       4.621
  H     -691.531     670.507      11.269
  H     -686.662     669.155       5.260
  H     -692.377     668.013       9.692
  H     -694.196     669.376      10.817
  H     -693.724     670.773       9.856
  P     -692.377     669.281      13.412
  C     -690.041     669.891      14.436
  O     -691.282     670.357      13.907
  O     -692.262     668.119      14.494
  O     -693.752     669.767      13.228
  H     -692.983     668.228      15.180
  H     -689.644     669.071      13.849
  H     -690.201     669.592      15.481
  H     -689.344     670.727      14.421
  H     -697.023     666.889      11.117
  H     -695.695     666.848       9.983
  H     -697.340     666.923       9.400

 3  4  5  6  7  8  9  10  11  12  23  26  30  31  33  0
 6-311+G(2d,p)
 ****
 35  36  37  38 0
 6-311+G(2d,p)
 ****
 1  2  13  14  15  16  17  18  19  20  21  22  24  25  27  28  29 0
 3-21G
 ****
 32  34  39  40  41  42  43  44  45  46  47  48  49 0
 3-21G
 ****


