%nproc=1
%NoSave
%Mem=1900MB
#P OB98/GEN NMR

erre ene a

0 1
  C      150.380    -101.240     -38.352
  O      151.202    -100.505     -37.459
  P      150.523     -99.347     -36.579
  C      151.448     -97.214     -37.744
  O      150.327     -98.060     -37.521
  C      151.005     -95.762     -37.921
  O      149.951     -95.692     -38.920
  C      150.464     -95.118     -36.645
  O      150.802     -93.724     -36.627
  C      148.957     -95.218     -36.806
  O      148.277     -94.243     -36.020
  C      148.822     -95.026     -38.321
  N      144.283     -93.794     -40.183
  C      145.406     -93.002     -40.013
  N      145.273     -91.691     -40.300
  N      146.563     -93.463     -39.608
  C      146.547     -94.799     -39.346
  C      145.506     -95.685     -39.490
  C      144.226     -95.156     -39.934
  O      143.188     -95.798     -40.081
  N      145.883     -96.965     -39.167
  C      147.140     -96.846     -38.787
  N      147.578     -95.550     -38.845
  O      151.704     -98.914     -35.593
  O      149.311     -99.773     -35.814
  H      147.357     -94.203     -36.344
  H      151.534     -99.262     -34.697
  H      143.413     -93.388     -40.488
  H      147.762     -97.659     -38.437
  H      148.883     -93.966     -38.593
  H      148.608     -96.210     -36.496
  H      144.390     -91.260     -40.558
  H      150.808     -95.586     -35.715
  H      146.064     -91.085     -40.143
  H      151.854     -95.183     -38.316
  H      151.971     -97.547     -38.645
  H      152.140     -97.294     -36.901
  P      151.158     -93.099     -35.188
  C      148.747     -92.165     -34.835
  O      149.773     -93.034     -34.381
  O      151.481     -91.569     -35.523
  O      152.286     -93.785     -34.489
  H      152.077     -91.193     -34.846
  H      147.883     -92.769     -35.129
  H      149.072     -91.556     -35.691
  H      148.462     -91.498     -34.020
  H      150.972    -101.970     -38.863
  H      149.943    -100.573     -39.065
  H      149.605    -101.731     -37.801

 3  4  5  6  7  8  9  10  11  12  23  26  30  31 0
 6-311+G(2d,p)
 ****
 33  35  36  37  38 0
 6-311+G(2d,p)
 ****
 1  2  13  14  15  16  17  18  19  20  21  22  24  25 0
 3-21G
 ****
 27  28  29  32  34  39  40  41  42  43  44  45  46  47  48  49 0
 3-21G
 ****


