%nproc=1
%NoSave
%Mem=1900MB
#P OB98/GEN NMR

erre ene a

0 1
  C      341.356    -136.488     -47.843
  O      340.474    -137.363     -48.531
  P      339.331    -136.783     -49.499
  C      340.310    -137.768     -51.679
  O      340.048    -136.593     -50.923
  C      339.396    -137.815     -52.900
  O      339.583    -136.619     -53.683
  C      339.669    -138.973     -53.849
  O      339.148    -140.188     -53.331
  C      339.008    -138.466     -55.126
  O      337.583    -138.663     -55.067
  C      339.331    -136.960     -55.072
  N      340.462    -136.591     -55.916
  C      340.161    -136.146     -57.206
  O      338.997    -136.068     -57.591
  N      341.197    -135.765     -58.030
  C      342.421    -135.841     -57.613
  N      343.396    -135.386     -58.445
  C      342.786    -136.352     -56.276
  C      341.768    -136.699     -55.487
  O      338.635    -135.567     -48.987
  O      338.359    -138.022     -49.761
  H      337.425    -139.610     -55.252
  H      337.639    -138.109     -49.089
  H      343.827    -136.408     -55.980
  H      341.951    -137.066     -54.485
  H      338.456    -136.375     -55.380
  H      339.373    -138.958     -56.030
  H      340.747    -139.092     -54.016
  H      338.356    -137.837     -52.552
  H      343.089    -134.880     -59.268
  H      340.107    -138.644     -51.049
  H      344.318    -135.143     -58.095
  H      341.366    -137.780     -51.971
  P      339.060    -141.444     -54.323
  C      340.793    -142.809     -52.971
  O      340.471    -142.198     -54.203
  O      339.091    -140.769     -55.772
  O      337.854    -142.307     -54.122
  H      338.187    -140.725     -56.152
  H      341.652    -143.471     -53.125
  H      339.956    -143.406     -52.597
  H      341.064    -142.048     -52.237
  H      342.040    -137.062     -47.254
  H      340.791    -135.841     -47.205
  H      341.902    -135.901     -48.552

 3  4  5  6  7  8  9  10  11  12  13  23  27  28  29  30  32 0
 6-311+G(2d,p)
 ****
 34  35 0
 6-311+G(2d,p)
 ****
 1  2  14  15  16  17  18  19  20  21  22  24  25  26 0
 3-21G
 ****
 31  33  36  37  38  39  40  41  42  43  44  45  46 0
 3-21G
 ****


