%nproc=1
%NoSave
%Mem=1900MB
#P OB98/GEN NMR

erre ene a

0 1
  C       26.249    -791.724    1270.763
  O       27.514    -792.348    1270.694
  P       28.847    -791.499    1270.966
  C       28.488    -791.787    1273.499
  O       28.696    -790.863    1272.430
  C       29.361    -791.391    1274.703
  O       30.759    -791.649    1274.435
  C       29.310    -789.908    1275.056
  O       28.080    -789.397    1275.518
  C       30.517    -789.770    1275.953
  O       30.229    -790.203    1277.275
  C       31.522    -790.763    1275.288
  N       32.564    -790.057    1274.551
  C       33.549    -789.469    1275.332
  O       33.585    -789.516    1276.542
  N       34.538    -788.781    1274.633
  C       34.566    -788.596    1273.278
  O       35.439    -787.932    1272.724
  C       33.488    -789.234    1272.515
  C       32.533    -789.927    1273.164
  O       29.224    -790.531    1269.898
  O       29.949    -792.637    1271.220
  H       31.040    -790.136    1277.806
  H       29.766    -793.241    1271.968
  H       35.248    -788.332    1275.163
  H       33.496    -789.107    1271.434
  H       31.730    -790.385    1272.636
  H       32.000    -791.393    1276.045
  H       30.865    -788.751    1276.023
  H       29.529    -789.331    1274.132
  H       29.070    -792.012    1275.550
  H       28.766    -792.795    1273.165
  H       27.427    -791.795    1273.773
  P       27.811    -787.830    1275.751
  C       26.810    -787.405    1273.397
  O       27.828    -787.096    1274.316
  O       28.563    -787.176    1276.877
  O       26.236    -787.810    1276.108
  H       26.056    -787.089    1276.706
  H       27.015    -786.851    1272.460
  H       25.838    -787.100    1273.777
  H       26.822    -788.482    1273.173
  H       25.485    -792.443    1270.554
  H       26.201    -790.934    1270.043
  H       26.102    -791.323    1271.744

 3  4  5  6  7  8  9  10  11  12  13  23  28  29  30  31  32 0
 6-311+G(2d,p)
 ****
 33  34 0
 6-311+G(2d,p)
 ****
 1  2  14  15  16  17  18  19  20  21  22  24  25  26  27 0
 3-21G
 ****
 35  36  37  38  39  40  41  42  43  44  45 0
 3-21G
 ****


