%nproc=1
%NoSave
%Mem=1900MB
#P OB98/GEN NMR

erre ene a

0 1
  C     -157.539      40.742      13.346
  O     -157.191      41.762      14.261
  H     -156.639      40.181      13.086
  H     -157.952      41.183      12.436
  H     -158.266      40.055      13.791
  P     -158.391      42.565      14.959
  C     -157.532      44.954      14.396
  O     -157.790      43.988      15.404
  C     -156.124      45.526      14.569
  O     -155.157      44.472      14.302
  C     -155.803      46.691      13.623
  O     -154.972      47.628      14.322
  C     -154.994      46.028      12.524
  O     -154.146      46.923      11.813
  C     -154.222      44.979      13.330
  N     -153.697      43.901      12.492
  C     -152.325      43.886      12.254
  O     -151.516      44.659      12.765
  N     -151.889      42.920      11.381
  C     -152.669      42.015      10.723
  O     -152.221      41.190       9.938
  C     -154.108      42.087      11.009
  C     -154.549      43.014      11.864
  O     -158.579      41.792      16.349
  O     -159.656      42.642      14.172
  H     -159.219      41.063      16.250
  H     -154.723      47.545      11.324
  H     -150.898      42.896      11.197
  H     -154.763      41.390      10.498
  H     -155.610      43.109      12.080
  H     -153.399      45.448      13.882
  H     -155.664      45.550      11.803
  H     -156.687      47.206      13.229
  H     -155.992      45.826      15.617
  H     -158.261      45.767      14.476
  H     -157.634      44.482      13.411
  P     -155.514      49.133      14.468
  C     -153.392      50.422      13.628
  O     -154.213      50.035      14.721
  O     -156.235      49.060      15.892
  O     -156.387      49.549      13.332
  H     -155.784      48.474      16.521
  H     -152.577      51.016      13.987
  H     -153.970      50.993      12.932
  H     -153.010      49.549      13.142

 6  7  8  9  10  11  12  13  14  15  16  27  31  32  33  34  35 0
 6-311+G(2d,p)
 ****
 36  37 0
 6-311+G(2d,p)
 ****
 1  2  3  4  5  17  18  19  20  21  22  23  24  25 0
 3-21G
 ****
 26  28  29  30  38  39  40  41  42  43  44  45 0
 3-21G
 ****


