%nproc=1
%NoSave
%Mem=1900MB
#P OB98/GEN NMR

erre ene a

0 1
  C     -253.814     722.571     966.736
  O     -255.067     723.211     966.883
  H     -253.630     721.947     967.614
  H     -253.016     723.312     966.660
  H     -253.821     721.941     965.846
  P     -255.479     724.260     965.744
  C     -256.507     722.421     964.226
  O     -255.538     723.453     964.363
  C     -257.130     722.480     962.829
  O     -257.950     723.672     962.720
  C     -256.112     722.599     961.698
  O     -255.517     721.355     961.374
  C     -256.990     723.133     960.580
  O     -257.677     722.076     959.896
  C     -257.966     724.048     961.328
  N     -257.645     725.458     961.145
  C     -257.890     725.976     959.866
  O     -258.351     725.299     958.945
  N     -257.552     727.284     959.674
  C     -256.955     728.097     960.593
  O     -256.621     729.253     960.336
  C     -256.702     727.502     961.917
  C     -257.045     726.228     962.123
  O     -254.177     725.175     965.601
  O     -256.704     725.067     966.048
  H     -254.342     726.050     966.003
  H     -256.982     721.502     959.524
  H     -257.726     727.674     958.758
  H     -256.228     728.123     962.668
  H     -256.863     725.760     963.080
  H     -258.998     723.883     960.968
  H     -256.391     723.651     959.844
  H     -255.354     723.347     961.946
  H     -257.764     721.611     962.687
  H     -257.293     722.545     964.968
  H     -256.017     721.452     964.392
  P     -254.091     721.379     960.628
  C     -252.522     721.515     962.752
  O     -253.099     722.160     961.627
  O     -254.384     722.406     959.445
  O     -253.639     720.025     960.186
  H     -255.093     723.035     959.687
  H     -251.899     722.207     963.279
  H     -251.933     720.684     962.424
  H     -253.298     721.168     963.401

 6  7  8  9  10  11  12  13  14  15  16  27  31  32  33  34  35 0
 6-311+G(2d,p)
 ****
 36  37 0
 6-311+G(2d,p)
 ****
 1  2  3  4  5  17  18  19  20  21  22  23  24  25 0
 3-21G
 ****
 26  28  29  30  38  39  40  41  42  43  44  45 0
 3-21G
 ****


