%nproc=1
%NoSave
%Mem=1900MB
#P OB98/GEN NMR

erre ene a

0 1
  C       47.169    -614.958      91.859
  O       48.208    -615.640      92.535
  P       49.684    -614.979      92.452
  C       50.454    -616.691      90.632
  O       50.253    -615.332      90.996
  C       51.808    -616.844      89.942
  O       51.976    -615.831      88.930
  C       53.001    -616.723      90.880
  O       53.237    -617.938      91.553
  C       54.110    -616.336      89.900
  O       54.628    -617.501      89.229
  C       53.368    -615.413      88.926
  N       56.500    -611.451      89.264
  C       56.783    -612.797      89.066
  N       58.084    -613.118      88.885
  N       55.874    -613.732      89.041
  C       54.609    -613.263      89.244
  C       54.220    -611.969      89.470
  C       55.225    -610.932      89.446
  O       55.029    -609.722      89.518
  N       52.862    -611.880      89.659
  C       52.439    -613.125      89.516
  N       53.459    -614.003      89.244
  O       50.540    -615.896      93.446
  O       49.752    -613.523      92.807
  H       55.376    -617.228      88.657
  H       50.634    -615.463      94.316
  H       57.245    -610.785      89.257
  H       51.402    -613.435      89.572
  H       53.735    -615.528      87.895
  H       54.958    -615.863      90.406
  H       58.839    -612.455      88.919
  H       52.841    -615.901      91.595
  H       58.306    -614.107      88.745
  H       51.818    -617.828      89.440
  H       49.649    -617.000      89.945
  H       50.400    -617.324      91.525
  P       53.610    -617.862      93.119
  C       56.082    -617.088      92.938
  O       54.752    -616.746      93.272
  O       54.375    -619.247      93.381
  O       52.429    -617.714      94.021
  H       54.161    -619.576      94.274
  H       56.589    -616.186      92.585
  H       56.116    -617.847      92.137
  H       56.589    -617.470      93.819
  H       46.250    -615.490      91.988
  H       47.402    -614.896      90.817
  H       47.069    -613.971      92.261

 3  4  5  6  7  8  9  10  11  12  23  26  30  31 0
 6-311+G(2d,p)
 ****
 33  35  36  37  38 0
 6-311+G(2d,p)
 ****
 1  2  13  14  15  16  17  18  19  20  21  22  24  25 0
 3-21G
 ****
 27  28  29  32  34  39  40  41  42  43  44  45  46  47  48  49 0
 3-21G
 ****


