%nproc=1
%NoSave
%Mem=1900MB
#P OB98/GEN NMR

erre ene a

0 1
  C     -122.242      48.599     324.745
  O     -122.882      49.763     325.244
  P     -124.034      50.501     324.407
  C     -122.285      52.210     323.614
  O     -123.263      51.255     323.221
  C     -121.091      52.159     322.665
  O     -120.547      50.816     322.685
  C     -121.390      52.448     321.195
  O     -121.420      53.826     320.859
  C     -120.190      51.794     320.526
  O     -119.043      52.654     320.632
  C     -119.990      50.536     321.377
  N     -119.282      46.144     318.849
  C     -118.415      47.078     319.300
  N     -118.685      48.231     319.950
  C     -120.004      48.357     320.162
  C     -121.008      47.489     319.763
  C     -120.603      46.331     319.078
  N     -121.488      45.367     318.639
  N     -122.247      47.966     320.147
  C     -121.990      49.099     320.769
  N     -120.651      49.372     320.811
  O     -124.949      51.343     325.224
  O     -124.791      49.314     323.649
  H     -119.131      53.143     321.474
  H     -125.659      49.626     323.326
  H     -117.363      46.875     319.113
  H     -122.735      49.745     321.198
  H     -118.931      50.288     321.520
  H     -120.348      51.604     319.461
  H     -122.307      51.939     320.868
  H     -120.318      52.841     323.045
  H     -121.948      51.962     324.626
  H     -121.099      44.513     318.273
  H     -122.446      45.428     318.952
  H     -122.730      53.210     323.634
  P     -122.856      54.468     320.510
  C     -121.641      56.336     319.136
  O     -122.631      55.328     319.179
  O     -123.504      55.188     321.640
  O     -123.692      53.201     319.993
  H     -123.389      52.819     319.154
  H     -121.538      56.687     318.107
  H     -120.677      55.946     319.468
  H     -121.936      57.180     319.767
  H     -121.510      48.265     325.450
  H     -121.764      48.826     323.815
  H     -122.969      47.829     324.594

 3  4  5  6  7  8  9  10  11  12  22  25  29  30  31  32 0
 6-311+G(2d,p)
 ****
 33  36  37 0
 6-311+G(2d,p)
 ****
 1  2  13  14  15  16  17  18  19  20  21  23  24  26 0
 3-21G
 ****
 27  28  34  35  38  39  40  41  42  43  44  45  46  47  48 0
 3-21G
 ****


