%nproc=1
%NoSave
%Mem=1900MB
#P OB98/GEN NMR

erre ene a

0 1
  C     -214.278    -141.481     106.321
  O     -213.836    -140.385     107.096
  H     -215.148    -141.946     106.790
  H     -214.562    -141.121     105.330
  H     -213.477    -142.216     106.214
  P     -213.405    -140.695     108.610
  C     -211.402    -140.068     110.132
  O     -212.077    -139.836     108.903
  C     -209.891    -140.007     109.914
  O     -209.514    -141.088     109.025
  C     -209.384    -138.687     109.305
  O     -208.417    -138.083     110.169
  C     -208.686    -139.107     108.019
  O     -207.476    -138.392     107.777
  C     -208.428    -140.596     108.228
  N     -206.274    -140.566     103.609
  C     -205.896    -140.000     104.777
  N     -206.455    -140.134     105.994
  C     -207.503    -140.974     105.948
  C     -207.993    -141.644     104.840
  C     -207.345    -141.398     103.618
  N     -207.764    -141.931     102.418
  N     -209.093    -142.412     105.176
  C     -209.287    -142.177     106.459
  N     -208.362    -141.299     106.962
  O     -212.867    -142.203     108.536
  O     -214.492    -140.546     109.621
  H     -207.213    -138.590     106.858
  H     -213.261    -142.727     109.259
  H     -205.028    -139.347     104.723
  H     -210.099    -142.574     107.058
  H     -207.494    -140.783     108.772
  H     -209.364    -138.936     107.174
  H     -210.193    -137.978     109.100
  H     -209.399    -140.194     110.876
  H     -211.667    -141.062     110.513
  H     -207.311    -141.608     101.579
  H     -208.623    -142.461     102.401
  H     -211.721    -139.320     110.864
  P     -208.975    -137.025     111.247
  C     -207.867    -136.212     113.457
  O     -207.713    -136.468     112.068
  O     -209.726    -137.959     112.310
  O     -209.883    -135.992     110.668
  H     -210.434    -137.456     112.755
  H     -206.944    -135.848     113.857
  H     -208.141    -137.117     113.958
  H     -208.632    -135.478     113.602

 6  7  8  9  10  11  12  13  14  15  25  28  32  33  34  35 0
 6-311+G(2d,p)
 ****
 36  39  40 0
 6-311+G(2d,p)
 ****
 1  2  3  4  5  16  17  18  19  20  21  22  23  24 0
 3-21G
 ****
 26  27  29  30  31  37  38  41  42  43  44  45  46  47  48 0
 3-21G
 ****


