%nproc=1
%NoSave
%Mem=1900MB
#P OB98/GEN NMR

erre ene a

0 1
  C        8.096    -886.183      23.465
  O        9.255    -885.383      23.356
  P        9.411    -884.217      22.277
  C        9.482    -885.903      20.302
  O       10.129    -884.833      20.968
  C        9.975    -886.116      18.857
  O        9.685    -884.927      18.086
  C       11.501    -886.270      18.848
  O       12.083    -887.533      19.105
  C       11.955    -885.601      17.557
  O       12.174    -886.545      16.501
  C       10.799    -884.669      17.211
  N       11.402    -880.349      14.622
  C       10.772    -881.515      14.245
  N       10.421    -881.592      12.926
  N       10.517    -882.511      15.052
  C       11.017    -882.323      16.297
  C       11.642    -881.205      16.799
  C       11.880    -880.097      15.905
  O       12.513    -879.082      16.191
  N       12.077    -881.403      18.092
  C       11.732    -882.649      18.353
  N       11.123    -883.257      17.282
  O        9.871    -882.884      22.786
  O        7.890    -884.037      21.774
  H       11.416    -887.157      16.487
  H        7.755    -883.092      21.573
  H       11.632    -879.648      13.931
  H       11.935    -883.162      19.291
  H       10.443    -884.862      16.193
  H       12.914    -885.080      17.710
  H       10.718    -880.913      12.249
  H       11.892    -885.635      19.650
  H       10.113    -882.491      12.578
  H        9.438    -886.925      18.370
  H        8.405    -885.701      20.313
  H        9.636    -886.835      20.866
  P       12.743    -888.017      20.485
  C       14.933    -886.709      20.537
  O       14.331    -887.966      20.326
  O       12.434    -889.583      20.539
  O       12.206    -887.340      21.704
  H       12.477    -889.895      21.470
  H       15.943    -886.713      20.122
  H       15.005    -886.498      21.613
  H       14.358    -885.915      20.054
  H        8.225    -886.892      24.256
  H        7.933    -886.702      22.544
  H        7.252    -885.561      23.678

 3  4  5  6  7  8  9  10  11  12  23  26  30  31 0
 6-311+G(2d,p)
 ****
 33  35  36  37  38 0
 6-311+G(2d,p)
 ****
 1  2  13  14  15  16  17  18  19  20  21  22  24  25 0
 3-21G
 ****
 27  28  29  32  34  39  40  41  42  43  44  45  46  47  48  49 0
 3-21G
 ****


