%nproc=1
%NoSave
%Mem=1900MB
#P OB98/GEN NMR

erre ene a

0 1
  C      540.180    -739.103    -335.853
  O      539.177    -739.702    -335.003
  P      539.303    -739.516    -333.408
  C      537.429    -739.027    -331.679
  O      537.909    -739.865    -332.724
  C      536.230    -739.679    -330.966
  O      535.027    -739.616    -331.753
  C      536.445    -741.158    -330.658
  O      537.193    -741.333    -329.472
  C      535.022    -741.619    -330.445
  O      534.572    -741.266    -329.104
  C      534.243    -740.803    -331.485
  N      531.637    -744.599    -333.712
  C      531.664    -744.166    -332.440
  N      532.410    -743.149    -331.924
  C      533.136    -742.565    -332.869
  C      533.227    -742.922    -334.211
  C      532.418    -743.992    -334.641
  N      532.387    -744.447    -335.943
  N      534.101    -742.098    -334.887
  C      534.558    -741.271    -333.968
  N      534.015    -741.517    -332.739
  O      539.424    -737.913    -333.243
  O      540.497    -740.184    -332.819
  H      533.616    -741.519    -329.073
  H      540.002    -737.706    -332.503
  H      531.024    -744.681    -331.735
  H      535.260    -740.468    -334.145
  H      533.263    -740.466    -331.133
  H      534.888    -742.716    -330.521
  H      536.889    -741.692    -331.514
  H      536.055    -739.137    -330.025
  H      537.117    -738.061    -332.086
  H      531.758    -745.198    -336.181
  H      532.949    -743.970    -336.635
  H      538.251    -738.830    -330.965
  P      538.715    -741.872    -329.638
  C      540.715    -741.678    -327.984
  O      539.324    -741.947    -328.165
  O      539.455    -740.648    -330.325
  O      538.825    -743.138    -330.444
  H      540.183    -740.985    -330.908
  H      540.884    -741.461    -326.927
  H      541.026    -740.831    -328.610
  H      541.280    -742.555    -328.265
  H      539.954    -739.317    -336.877
  H      541.141    -739.505    -335.608
  H      540.188    -738.044    -335.703

 3  4  5  6  7  8  9  10  11  12  22  25  29  30  31  32 0
 6-311+G(2d,p)
 ****
 33  36  37 0
 6-311+G(2d,p)
 ****
 1  2  13  14  15  16  17  18  19  20  21  23  24  26 0
 3-21G
 ****
 27  28  34  35  38  39  40  41  42  43  44  45  46  47  48 0
 3-21G
 ****


