%nproc=1
%NoSave
%Mem=1900MB
#P OB98/GEN NMR

erre ene a

0 1
  C     -155.785     -75.315    -507.916
  O     -154.913     -74.542    -507.114
  H     -156.354     -75.987    -507.268
  H     -155.210     -75.913    -508.628
  H     -156.481     -74.664    -508.452
  P     -153.995     -73.471    -507.876
  C     -155.218     -71.285    -507.175
  O     -154.942     -72.220    -508.211
  C     -155.029     -69.865    -507.699
  O     -153.684     -69.707    -508.211
  C     -155.947     -69.512    -508.862
  O     -157.260     -69.194    -508.436
  C     -155.205     -68.331    -509.471
  O     -155.507     -67.110    -508.784
  C     -153.735     -68.712    -509.260
  N     -152.076     -67.477    -513.926
  C     -152.556     -66.727    -512.912
  N     -152.967     -67.130    -511.691
  C     -152.815     -68.461    -511.556
  C     -152.338     -69.352    -512.499
  C     -151.952     -68.812    -513.740
  N     -151.486     -69.580    -514.783
  N     -152.368     -70.643    -512.010
  C     -152.848     -70.531    -510.786
  N     -153.128     -69.230    -510.469
  O     -153.750     -74.155    -509.302
  O     -152.713     -73.134    -507.193
  H     -154.913     -66.430    -509.162
  H     -152.868     -74.575    -509.315
  H     -152.630     -65.661    -513.109
  H     -153.015     -71.354    -510.103
  H     -153.129     -67.860    -508.930
  H     -155.480     -68.199    -510.519
  H     -155.965     -70.329    -509.590
  H     -155.163     -69.163    -506.868
  H     -154.530     -71.456    -506.339
  H     -156.245     -71.434    -506.827
  H     -151.293     -69.133    -515.663
  H     -151.498     -70.588    -514.691
  P     -158.415     -69.159    -509.547
  C     -158.795     -71.718    -509.218
  O     -158.568     -70.647    -510.122
  O     -157.757     -68.346    -510.759
  O     -159.694     -68.538    -509.093
  H     -158.437     -67.801    -511.201
  H     -158.872     -72.635    -509.764
  H     -159.704     -71.545    -508.681
  H     -157.980     -71.781    -508.528

 6  7  8  9  10  11  12  13  14  15  25  28  32  33  34  35 0
 6-311+G(2d,p)
 ****
 36  37  40 0
 6-311+G(2d,p)
 ****
 1  2  3  4  5  16  17  18  19  20  21  22  23  24 0
 3-21G
 ****
 26  27  29  30  31  38  39 41  42  43  44  45  46  47  48 0
 3-21G
 ****


