%nproc=1
%NoSave
%Mem=1900MB
#P OB98/GEN NMR

erre ene a

0 1
  C     -129.696     315.211     475.164
  O     -129.257     315.205     476.507
  H     -128.832     315.103     474.508
  H     -130.184     316.166     474.945
  H     -130.391     314.387     474.976
  P     -130.361     314.956     477.641
  C     -130.812     317.506     477.830
  O     -131.360     316.217     477.596
  C     -131.849     318.591     477.518
  O     -132.207     318.498     476.109
  C     -133.144     318.472     478.341
  O     -133.621     319.791     478.644
  C     -134.111     317.841     477.349
  O     -135.471     318.105     477.675
  C     -133.646     318.487     476.047
  N     -137.335     318.404     472.645
  C     -136.989     319.366     473.573
  N     -137.786     320.462     473.647
  N     -135.948     319.268     474.358
  C     -135.231     318.139     474.164
  C     -135.471     317.109     473.292
  C     -136.634     317.221     472.435
  O     -137.004     316.385     471.609
  N     -134.543     316.109     473.439
  C     -133.761     316.526     474.422
  N     -134.140     317.754     474.892
  O     -129.533     315.177     478.991
  O     -131.026     313.617     477.608
  H     -136.034     317.731     476.966
  H     -129.213     314.320     479.329
  H     -138.156     318.521     472.069
  H     -132.930     315.973     474.835
  H     -133.992     319.518     475.942
  H     -133.967     316.748     477.330
  H     -138.581     320.622     473.055
  H     -133.040     317.893     479.261
  H     -137.510     321.188     474.291
  H     -131.383     319.573     477.670
  H     -129.939     317.651     477.182
  H     -130.490     317.578     478.873
  P     -133.456     320.315     480.148
  C     -135.712     319.153     480.734
  O     -134.366     319.411     481.108
  O     -134.229     321.722     480.129
  O     -132.035     320.481     480.581
  H     -133.781     322.352     480.727
  H     -136.177     318.539     481.477
  H     -135.730     318.647     479.791
  H     -136.243     320.078     480.652

 6  7  8  9  10  11  12  13  14  15  26  29  33  34 0
 6-311+G(2d,p)
 ****
 36  38  39  40  41 0
 6-311+G(2d,p)
 ****
 1  2  3  4  5  16  17  18  19  20  21  22  23  24  25 0
 3-21G
 ****
 27  28  30  31  32  35  37  42  43  44  45  46  47 0
 3-21G
 ****
 48  49 0
 3-21G
 ****


