%nproc=1
%NoSave
%Mem=1900MB
#P OB98/GEN NMR

erre ene a

0 1
  C     -401.052    -102.627     153.684
  O     -400.416    -101.834     152.679
  P     -399.720    -100.468     153.169
  C     -397.327    -100.835     152.214
  O     -398.157    -100.770     153.367
  C     -396.781    -102.249     152.022
  O     -397.842    -103.187     151.789
  C     -395.848    -102.395     150.828
  O     -394.537    -101.934     151.119
  C     -395.852    -103.906     150.638
  O     -394.917    -104.519     151.548
  C     -397.295    -104.285     151.015
  N     -399.455    -107.768     148.033
  C     -398.629    -107.929     149.131
  N     -398.366    -109.203     149.500
  N     -398.114    -106.937     149.802
  C     -398.488    -105.721     149.334
  C     -399.298    -105.431     148.262
  C     -399.838    -106.542     147.508
  O     -400.547    -106.452     146.512
  N     -399.456    -104.079     148.104
  C     -398.769    -103.551     149.098
  N     -398.151    -104.505     149.866
  O     -400.259    -100.316     154.672
  O     -400.057     -99.283     152.332
  H     -394.910    -105.476     151.345
  H     -400.269     -99.374     154.927
  H     -399.818    -108.568     147.548
  H     -398.692    -102.492     149.304
  H     -397.330    -105.181     151.647
  H     -395.557    -104.210     149.625
  H     -398.785    -110.013     149.072
  H     -396.269    -101.909     149.936
  H     -397.791    -109.339     150.326
  H     -396.252    -102.535     152.943
  H     -396.500    -100.133     152.314
  H     -397.909    -100.518     151.340
  P     -394.256    -100.365     150.923
  C     -393.747     -99.657     153.369
  O     -394.682     -99.677     152.308
  O     -395.398     -99.914     149.900
  O     -392.892    -100.041     150.422
  H     -395.096     -99.152     149.370
  H     -392.748     -99.399     153.013
  H     -393.724    -100.638     153.857
  H     -394.059     -98.907     154.101
  H     -401.473    -103.502     153.234
  H     -401.828    -102.057     154.150
  H     -400.331    -102.916     154.420

 3  4  5  6  7  8  9  10  11  12  23  26  30  31  33  0
 6-311+G(2d,p)
 ****
 35  36  37  38 0
 6-311+G(2d,p)
 ****
 1  2  13  14  15  16  17  18  19  20  21  22  24  25  27  28  29 0
 3-21G
 ****
 32  34  39  40  41  42  43  44  45  46  47  48  49 0
 3-21G
 ****


