%nproc=1
%NoSave
%Mem=1900MB
#P OB98/GEN NMR

erre ene a

0 1
  C       52.526      56.245      26.410
  O       52.865      55.691      27.671
  P       53.687      54.317      27.777
  C       53.168      51.866      27.196
  O       52.638      53.174      27.369
  C       52.046      50.833      27.254
  O       51.586      50.735      28.623
  C       50.799      51.156      26.433
  O       50.879      50.784      25.065
  C       49.767      50.280      27.131
  O       49.909      48.916      26.692
  C       50.174      50.408      28.601
  N       45.506      51.998      29.970
  C       45.929      50.901      29.302
  N       47.189      50.558      28.959
  C       48.066      51.466      29.418
  C       47.788      52.629      30.117
  C       46.434      52.886      30.395
  N       46.009      53.994      31.096
  N       48.951      53.318      30.401
  C       49.911      52.574      29.893
  N       49.428      51.441      29.297
  O       54.393      54.117      29.073
  O       54.682      54.353      26.526
  H       49.490      48.856      25.812
  H       55.396      53.700      26.650
  H       45.151      50.206      28.997
  H       50.964      52.816      29.929
  H       50.048      49.472      29.156
  H       48.738      50.578      26.913
  H       50.511      52.208      26.542
  H       52.460      49.858      26.967
  H       53.877      51.673      28.009
  H       45.038      54.030      31.361
  H       46.707      54.566      31.551
  H       53.709      51.811      26.248
  P       50.127      51.730      24.002
  C       47.615      52.033      23.332
  O       48.571      51.358      24.120
  O       50.694      51.692      22.627
  O       50.214      53.174      24.692
  H       49.700      53.274      25.509
  H       46.652      51.527      23.440
  H       47.899      52.019      22.277
  H       47.509      53.066      23.673
  H       51.983      57.155      26.555
  H       51.920      55.551      25.867
  H       53.420      56.447      25.857

 3  4  5  6  7  8  9  10  11  12  22  25  29  30  31  32 0
 6-311+G(2d,p)
 ****
 33  36  37 0
 6-311+G(2d,p)
 ****
 1  2  13  14  15  16  17  18  19  20  21  23  24  26 0
 3-21G
 ****
 27  28  34  35  38  39  40  41  42  43  44  45  46  47  48 0
 3-21G
 ****


