%nproc=1
%NoSave
%Mem=1900MB
#P OB98/GEN NMR

erre ene a

0 1
  C     -438.539    -279.462     -59.389
  O     -438.148    -278.418     -58.513
  P     -437.821    -276.978     -59.136
  C     -435.783    -276.007     -60.477
  O     -436.312    -277.053     -59.683
  C     -434.328    -276.318     -60.867
  O     -434.276    -277.640     -61.475
  C     -433.705    -275.328     -61.861
  O     -432.321    -275.198     -61.521
  C     -433.869    -276.048     -63.192
  O     -432.956    -275.584     -64.178
  C     -433.638    -277.501     -62.761
  N     -434.176    -278.485     -63.705
  C     -433.268    -279.307     -64.367
  O     -432.053    -279.246     -64.222
  N     -433.822    -280.203     -65.246
  C     -435.144    -280.312     -65.570
  O     -435.579    -281.123     -66.378
  C     -436.045    -279.383     -64.877
  C     -435.530    -278.531     -63.983
  O     -437.709    -276.087     -57.810
  O     -438.830    -276.513     -60.131
  H     -437.320    -276.565     -57.059
  H     -433.234    -274.695     -64.458
  H     -433.188    -280.840     -65.712
  H     -437.105    -279.424     -65.115
  H     -436.172    -277.830     -63.461
  H     -432.566    -277.686     -62.610
  H     -434.883    -275.892     -63.569
  H     -434.189    -274.347     -61.833
  H     -433.730    -276.364     -59.942
  H     -435.801    -275.072     -59.914
  H     -436.397    -275.880     -61.373
  P     -431.414    -274.205     -62.405
  C     -430.271    -274.401     -64.755
  O     -431.260    -274.862     -63.857
  O     -429.974    -274.469     -61.741
  O     -431.817    -272.768     -62.357
  H     -429.771    -275.411     -61.645
  H     -430.102    -275.167     -65.520
  H     -429.328    -274.208     -64.250
  H     -430.622    -273.488     -65.244
  H     -438.720    -280.352     -58.824
  H     -437.759    -279.643     -60.099
  H     -439.433    -279.179     -59.905

 3  4  5  6  7  8  9  10  11  12  13  24  28  29  30  31  32 0
 6-311+G(2d,p)
 ****
 33  34 0
 6-311+G(2d,p)
 ****
 1  2  14  15  16  17  18  19  20  21  22  23  25  26  27 0
 3-21G
 ****
 35  36  37  38  39  40  41  42  43  44  45 0
 3-21G
 ****


