%nproc=1
%NoSave
%Mem=1900MB
#P OB98/GEN NMR

erre ene a

0 1
  C     -636.960     467.234    -480.730
  O     -637.787     468.370    -480.467
  P     -637.320     469.888    -480.619
  C     -639.404     470.777    -481.938
  O     -638.626     470.805    -480.745
  C     -640.747     471.520    -481.805
  O     -641.578     470.842    -480.831
  C     -640.521     472.937    -481.277
  O     -640.174     473.982    -482.167
  C     -641.762     473.231    -480.432
  O     -642.776     473.910    -481.175
  C     -642.242     471.832    -480.025
  N     -643.768     472.683    -475.214
  C     -644.227     473.251    -476.388
  N     -645.185     474.200    -476.261
  N     -643.780     472.928    -477.571
  C     -642.774     472.023    -477.544
  C     -642.215     471.408    -476.443
  C     -642.759     471.727    -475.137
  O     -642.398     471.241    -474.074
  N     -641.193     470.565    -476.796
  C     -641.104     470.694    -478.107
  N     -642.050     471.570    -478.616
  O     -636.219     470.135    -481.597
  O     -636.755     470.245    -479.145
  H     -642.478     474.822    -481.326
  H     -636.023     470.881    -479.273
  H     -644.164     472.953    -474.328
  H     -640.392     470.176    -478.741
  H     -643.318     471.717    -480.221
  H     -641.502     473.876    -479.585
  H     -645.480     474.578    -475.378
  H     -639.694     472.886    -480.565
  H     -645.367     474.770    -477.094
  H     -641.306     471.487    -482.746
  H     -639.571     469.722    -482.186
  H     -638.831     471.203    -482.768
  P     -638.683     474.453    -482.531
  C     -639.488     474.996    -484.906
  O     -638.772     475.459    -483.774
  O     -638.015     473.153    -483.198
  O     -637.873     474.935    -481.376
  H     -637.044     473.240    -483.220
  H     -639.232     475.614    -485.770
  H     -640.565     475.080    -484.723
  H     -639.235     473.952    -485.133
  H     -637.517     466.338    -480.550
  H     -636.106     467.258    -480.086
  H     -636.639     467.255    -481.750

 3  4  5  6  7  8  9  10  11  12  23  26  30  31 0
 6-311+G(2d,p)
 ****
 33  35  36  37  38 0
 6-311+G(2d,p)
 ****
 1  2  13  14  15  16  17  18  19  20  21  22  24  25 0
 3-21G
 ****
 27  28  29  32  34  39  40  41  42  43  44  45  46  47  48  49 0
 3-21G
 ****


