%nproc=1
%NoSave
%Mem=1900MB
#P OB98/GEN NMR

erre ene a

0 1
  C     -185.162     -76.164    -155.666
  O     -184.961     -77.429    -155.070
  H     -184.199     -75.788    -156.024
  H     -185.563     -75.460    -154.933
  H     -185.845     -76.251    -156.514
  P     -186.247     -78.137    -154.422
  C     -187.555     -77.820    -152.201
  O     -186.666     -77.253    -153.151
  C     -187.740     -76.858    -151.031
  O     -186.514     -76.774    -150.268
  C     -188.057     -75.429    -151.447
  O     -189.417     -75.266    -151.814
  C     -187.696     -74.674    -150.177
  O     -188.775     -74.688    -149.229
  C     -186.483     -75.470    -149.649
  N     -185.221     -74.779    -149.891
  C     -185.076     -73.546    -149.259
  O     -185.944     -73.055    -148.538
  N     -183.912     -72.877    -149.513
  C     -182.915     -73.291    -150.351
  O     -181.928     -72.610    -150.593
  C     -183.119     -74.606    -150.983
  C     -184.249     -75.276    -150.736
  O     -185.638     -79.471    -153.776
  O     -187.356     -78.428    -155.377
  H     -185.843     -80.237    -154.343
  H     -188.506     -74.093    -148.503
  H     -183.793     -71.978    -149.072
  H     -182.344     -74.969    -151.648
  H     -184.427     -76.239    -151.206
  H     -186.575     -75.635    -148.567
  H     -187.471     -73.626    -150.385
  H     -187.386     -75.109    -152.251
  H     -188.525     -77.256    -150.373
  H     -187.141     -78.761    -151.827
  H     -188.514     -78.027    -152.689
  P     -189.838     -73.947    -152.625
  C     -191.290     -71.905    -151.828
  O     -190.291     -72.867    -151.529
  O     -191.207     -74.424    -153.296
  O     -188.796     -73.472    -153.580
  H     -191.725     -75.015    -152.726
  H     -191.450     -71.280    -150.975
  H     -192.202     -72.404    -152.080
  H     -190.971     -71.305    -152.655

 6  7  8  9  10  11  12  13  14  15  16  27  31  32  33  34  35 0
 6-311+G(2d,p)
 ****
 36  37 0
 6-311+G(2d,p)
 ****
 1  2  3  4  5  17  18  19  20  21  22  23  24  25 0
 3-21G
 ****
 26  28  29  30  38  39  40  41  42  43  44  45 0
 3-21G
 ****


