%nproc=1
%NoSave
%Mem=1900MB
#P OB98/GEN NMR

erre ene a

0 1
  C     -108.041    -660.915     643.044
  O     -108.201    -659.891     644.003
  H     -107.049    -661.361     643.163
  H     -108.113    -660.486     642.040
  H     -108.798    -661.693     643.171
  P     -109.693    -659.368     644.282
  C     -110.242    -661.204     646.035
  O     -110.541    -660.647     644.763
  C     -111.484    -661.868     646.632
  O     -111.933    -662.915     645.724
  C     -111.251    -662.517     648.008
  O     -112.426    -662.337     648.810
  C     -111.123    -663.990     647.671
  O     -111.426    -664.825     648.781
  C     -112.117    -664.101     646.520
  N     -112.546    -669.099     646.738
  C     -113.021    -668.120     647.593
  N     -113.652    -668.530     648.711
  N     -112.878    -666.840     647.368
  C     -112.240    -666.563     646.204
  C     -111.726    -667.438     645.278
  C     -111.871    -668.853     645.546
  O     -111.457    -669.768     644.841
  N     -111.097    -666.765     644.262
  C     -111.218    -665.483     644.579
  N     -111.904    -665.315     645.750
  O     -110.242    -659.087     642.803
  O     -109.796    -658.166     645.154
  H     -112.263    -664.513     649.182
  H     -110.119    -658.145     642.580
  H     -112.670    -670.069     646.964
  H     -110.813    -664.657     644.015
  H     -113.161    -664.124     646.864
  H     -110.106    -664.212     647.332
  H     -113.833    -669.492     648.939
  H     -110.376    -662.122     648.543
  H     -114.042    -667.821     649.325
  H     -112.287    -661.125     646.686
  H     -109.907    -660.407     646.705
  H     -109.435    -661.935     645.926
  P     -112.337    -661.348     650.073
  C     -112.078    -659.104     648.776
  O     -111.486    -660.055     649.649
  O     -111.355    -662.125     651.070
  O     -113.656    -661.067     650.711
  H     -111.617    -661.957     651.992
  H     -111.386    -658.309     648.593
  H     -112.964    -658.709     649.227
  H     -112.330    -659.578     647.850

 6  7  8  9  10  11  12  13  14  15  26  29  33  34 0
 6-311+G(2d,p)
 ****
 36  38  39  40  41 0
 6-311+G(2d,p)
 ****
 1  2  3  4  5  16  17  18  19  20  21  22  23  24  25 0
 3-21G
 ****
 27  28  30  31  32  35  37  42  43  44  45  46  47 0
 3-21G
 ****
 48  49 0
 3-21G
 ****


