%nproc=1
%NoSave
%Mem=1900MB
#P OB98/GEN NMR

erre ene a

0 1
  C       85.584    -311.451     149.992
  O       85.364    -311.561     148.600
  H       86.582    -311.040     150.158
  H       85.526    -312.439     150.457
  H       84.845    -310.781     150.444
  P       83.884    -311.978     148.133
  C       84.275    -310.181     146.258
  O       83.736    -311.437     146.631
  C       85.015    -310.286     144.923
  O       86.076    -311.266     145.058
  C       84.124    -310.720     143.759
  O       84.564    -310.049     142.577
  C       84.415    -312.207     143.630
  O       84.116    -312.702     142.328
  C       85.900    -312.255     144.023
  N       86.314    -313.583     144.471
  C       86.763    -314.467     143.486
  O       86.784    -314.120     142.304
  N       87.137    -315.734     143.851
  C       87.014    -316.112     145.084
  N       87.377    -317.388     145.378
  C       86.502    -315.228     146.150
  C       86.184    -313.988     145.779
  O       82.978    -310.975     148.990
  O       83.560    -313.421     148.326
  H       84.035    -313.679     142.376
  H       83.310    -310.062     148.996
  H       86.406    -315.592     147.163
  H       85.808    -313.271     146.498
  H       86.532    -311.966     143.174
  H       83.813    -312.772     144.349
  H       83.066    -310.509     143.933
  H       85.496    -309.325     144.714
  H       87.700    -317.967     144.614
  H       84.963    -309.819     147.028
  H       87.271    -317.806     146.291
  H       83.448    -309.468     146.178
  P       83.910    -308.644     142.178
  C       85.839    -307.705     140.733
  O       84.495    -308.171     140.763
  O       83.909    -307.604     143.247
  O       82.402    -309.054     141.802
  H       81.808    -308.368     142.164
  H       86.097    -307.424     139.733
  H       86.494    -308.483     141.065
  H       85.937    -306.857     141.378

 6  7  8  9  10  11  12  13  14  15  16  26  30  31  32  33  35 0
 6-311+G(2d,p)
 ****
 37  38 0
 6-311+G(2d,p)
 ****
 1  2  3  4  5  17  18  19  20  21  22  23  24  25 0
 3-21G
 ****
 27  28  29  34  36  39  40  41  42  43  44  45  46 0
 3-21G
 ****


