%nproc=1
%NoSave
%Mem=1900MB
#P OB98/GEN NMR

erre ene a

0 1
  C      261.902    -322.989      78.835
  O      262.120    -323.378      80.180
  P      263.512    -324.015      80.640
  C      263.836    -322.779      82.932
  O      263.585    -323.977      82.231
  C      263.724    -323.050      84.439
  O      262.352    -322.905      84.867
  C      264.181    -324.463      84.795
  O      265.542    -324.460      85.189
  C      263.224    -324.849      85.905
  O      263.663    -324.303      87.161
  C      261.914    -324.165      85.447
  N      261.076    -324.862      84.452
  C      260.226    -325.883      84.868
  O      260.100    -326.236      86.038
  N      259.533    -326.520      83.867
  C      259.570    -326.200      82.537
  O      259.141    -326.917      81.641
  C      260.266    -324.952      82.209
  C      260.991    -324.362      83.160
  O      264.573    -322.905      80.191
  O      263.825    -325.355      80.061
  H      263.094    -324.678      87.856
  H      264.991    -323.148      79.342
  H      259.019    -327.353      84.140
  H      260.208    -324.583      81.197
  H      261.548    -323.455      82.928
  H      261.274    -323.933      86.304
  H      263.198    -325.925      86.041
  H      264.019    -325.136      83.943
  H      264.324    -322.308      84.981
  H      263.124    -322.008      82.628
  H      264.842    -322.410      82.692
  P      266.576    -325.459      84.480
  C      268.565    -323.840      84.556
  O      268.019    -325.050      85.045
  O      266.471    -325.538      82.995
  O      266.262    -326.867      85.176
  H      265.666    -327.394      84.601
  H      269.447    -323.586      85.149
  H      267.836    -323.028      84.635
  H      268.859    -323.972      83.510
  H      260.915    -322.589      78.735
  H      262.008    -323.841      78.196
  H      262.619    -322.244      78.559

 3  4  5  6  7  8  9  10  11  12  13  23  28  29  30  31  32 0
 6-311+G(2d,p)
 ****
 33  34 0
 6-311+G(2d,p)
 ****
 1  2  14  15  16  17  18  19  20  21  22  24  25  26  27 0
 3-21G
 ****
 35  36  37  38  39  40  41  42  43  44  45 0
 3-21G
 ****


