%nproc=1
%NoSave
%Mem=1900MB
#P OB98/GEN NMR

erre ene a

0 1
  C      -16.473     336.437    -283.046
  O      -17.325     336.689    -284.145
  H      -16.577     337.251    -282.324
  H      -15.436     336.398    -283.387
  H      -16.739     335.495    -282.553
  P      -17.572     335.481    -285.173
  C      -20.139     335.310    -284.829
  O      -19.079     335.629    -285.719
  C      -21.480     335.409    -285.550
  O      -21.741     336.799    -285.885
  C      -21.544     334.598    -286.856
  O      -22.851     334.014    -286.978
  C      -21.362     335.650    -287.937
  O      -21.933     335.261    -289.188
  C      -22.032     336.860    -287.294
  N      -22.792     340.248    -290.950
  C      -23.542     339.142    -290.585
  N      -24.657     338.897    -291.314
  N      -23.221     338.349    -289.596
  C      -22.098     338.736    -288.941
  C      -21.270     339.805    -289.208
  C      -21.619     340.655    -290.326
  O      -20.988     341.636    -290.713
  N      -20.209     339.841    -288.334
  C      -20.398     338.805    -287.546
  N      -21.537     338.103    -287.869
  O      -17.641     334.197    -284.218
  O      -16.530     335.319    -286.233
  H      -22.902     335.173    -289.051
  H      -16.897     333.602    -284.414
  H      -23.081     340.819    -291.734
  H      -19.744     338.502    -286.733
  H      -23.117     336.853    -287.423
  H      -20.287     335.830    -288.094
  H      -24.989     339.489    -292.047
  H      -20.790     333.814    -286.913
  H      -25.239     338.117    -291.033
  H      -22.274     335.092    -284.857
  H      -20.119     336.023    -283.996
  H      -19.996     334.296    -284.445
  P      -22.958     332.423    -286.747
  C      -24.783     332.690    -284.930
  O      -24.423     332.097    -286.171
  O      -21.986     332.169    -285.504
  O      -22.546     331.617    -287.936
  H      -21.177     331.716    -285.795
  H      -25.776     332.391    -284.667
  H      -24.743     333.756    -285.019
  H      -24.101     332.370    -284.170

 6  7  8  9  10  11  12  13  14  15  26  29  33  34 0
 6-311+G(2d,p)
 ****
 36  38  39  40  41 0
 6-311+G(2d,p)
 ****
 1  2  3  4  5  16  17  18  19  20  21  22  23  24  25 0
 3-21G
 ****
 27  28  30  31  32  35  37  42  43  44  45  46  47 0
 3-21G
 ****
 48  49 0
 3-21G
 ****


