%nproc=1
%NoSave
%Mem=1900MB
#P OB98/GEN NMR

erre ene a

0 1
  C      -34.969    -118.376     126.385
  O      -36.065    -117.458     126.441
  P      -37.108    -117.643     127.649
  C      -38.278    -119.526     126.307
  O      -37.731    -119.121     127.554
  C      -39.735    -119.979     126.455
  O      -39.849    -121.052     127.431
  C      -40.683    -118.865     126.906
  O      -41.957    -119.097     126.292
  C      -40.810    -119.107     128.398
  O      -41.972    -118.479     128.936
  C      -40.809    -120.634     128.426
  N      -42.685    -122.284     132.879
  C      -43.284    -121.823     131.762
  N      -42.709    -121.380     130.619
  C      -41.372    -121.490     130.695
  C      -40.617    -121.933     131.771
  C      -41.330    -122.342     132.909
  N      -40.720    -122.788     134.059
  N      -39.267    -121.852     131.484
  C      -39.212    -121.366     130.260
  N      -40.457    -121.160     129.732
  O      -38.325    -116.693     127.229
  O      -36.557    -117.267     128.984
  H      -42.658    -118.454     128.234
  H      -38.342    -115.902     127.801
  H      -44.370    -121.802     131.785
  H      -38.308    -121.139     129.719
  H      -41.785    -121.058     128.157
  H      -39.931    -118.707     128.918
  H      -40.341    -117.851     126.675
  H      -40.073    -120.378     125.489
  H      -37.689    -120.348     125.890
  H      -41.301    -123.037     134.842
  H      -39.713    -122.791     134.110
  H      -38.188    -118.700     125.592
  P      -42.238    -118.329     124.913
  C      -44.189    -116.987     125.969
  O      -42.941    -116.946     125.307
  O      -43.417    -119.179     124.241
  O      -41.045    -118.222     124.018
  H      -43.399    -119.071     123.271
  H      -44.204    -116.215     126.744
  H      -44.379    -117.958     126.437
  H      -44.984    -116.779     125.248
  H      -34.354    -118.146     125.540
  H      -35.344    -119.374     126.292
  H      -34.390    -118.295     127.281

 3  4  5  6  7  8  9  10  11  12  22  25  29  30  31  32 0
 6-311+G(2d,p)
 ****
 33  36  37 0
 6-311+G(2d,p)
 ****
 1  2  13  14  15  16  17  18  19  20  21  23  24  26 0
 3-21G
 ****
 27  28  34  35  38  39  40  41  42  43  44  45  46  47  48 0
 3-21G
 ****


