%nproc=1
%NoSave
%Mem=1900MB
#P OB98/GEN NMR

erre ene a

0 1
  C     -491.373      48.342    -185.488
  O     -490.209      47.621    -185.134
  H     -491.111      49.078    -186.254
  H     -491.772      48.867    -184.614
  H     -492.132      47.666    -185.893
  P     -490.385      46.467    -184.031
  C     -490.428      48.113    -182.017
  O     -491.133      47.145    -182.785
  C     -490.828      47.997    -180.549
  O     -492.266      48.097    -180.428
  C     -490.456      46.666    -179.912
  O     -489.090      46.600    -179.558
  C     -491.396      46.642    -178.715
  O     -490.861      47.387    -177.613
  C     -492.652      47.332    -179.262
  N     -497.349      45.696    -178.105
  C     -496.613      46.725    -177.639
  N     -495.368      47.102    -178.009
  C     -494.906      46.310    -178.988
  C     -495.544      45.227    -179.566
  C     -496.831      44.924    -179.089
  N     -497.574      43.859    -179.549
  N     -494.733      44.635    -180.516
  C     -493.627      45.351    -180.514
  N     -493.688      46.376    -179.610
  O     -488.891      46.243    -183.503
  O     -490.997      45.201    -184.530
  H     -490.734      48.301    -177.935
  H     -488.510      45.452    -183.932
  H     -497.075      47.317    -176.853
  H     -492.759      45.166    -181.140
  H     -493.087      48.036    -178.541
  H     -491.568      45.620    -178.374
  H     -490.721      45.840    -180.583
  H     -490.380      48.834    -179.996
  H     -490.675      49.114    -182.384
  H     -489.351      47.946    -182.137
  H     -498.458      43.662    -179.111
  H     -497.149      43.211    -180.200
  P     -488.313      45.223    -179.830
  C     -489.130      44.241    -177.555
  O     -489.041      44.085    -178.963
  O     -486.906      45.422    -179.089
  O     -488.140      44.884    -181.274
  H     -486.199      44.978    -179.601
  H     -489.641      43.400    -177.135
  H     -489.671      45.136    -177.329
  H     -488.146      44.304    -177.140

 6  7  8  9  10  11  12  13  14  15  25  28  32  33  34  35 0
 6-311+G(2d,p)
 ****
 36  37  40 0
 6-311+G(2d,p)
 ****
 1  2  3  4  5  16  17  18  19  20  21  22  23  24 0
 3-21G
 ****
 26  27  29  30  31  38  39 41  42  43  44  45  46  47  48 0
 3-21G
 ****


