%nproc=1
%NoSave
%Mem=1900MB
#P OB98/GEN NMR

erre ene a

0 1
  C     -447.630     697.895     246.940
  O     -446.696     698.577     246.091
  P     -446.126     697.952     244.723
  C     -443.814     699.066     245.079
  O     -444.928     698.887     244.211
  C     -442.680     699.802     244.368
  O     -442.064     698.944     243.381
  C     -443.096     701.036     243.585
  O     -443.411     702.129     244.420
  C     -441.867     701.256     242.698
  O     -440.849     701.994     243.391
  C     -441.382     699.808     242.448
  N     -441.594     699.372     241.078
  C     -440.658     699.801     240.135
  O     -439.756     700.575     240.453
  N     -440.770     699.347     238.838
  C     -441.795     698.624     238.503
  N     -441.844     698.186     237.206
  C     -442.877     698.262     239.433
  C     -442.715     698.666     240.691
  O     -447.174     697.696     243.688
  O     -445.400     696.592     245.156
  H     -445.397     695.970     244.401
  H     -440.555     701.435     244.140
  H     -443.729     697.691     239.096
  H     -443.455     698.433     241.451
  H     -440.319     699.719     242.694
  H     -442.104     701.808     241.788
  H     -443.956     700.784     242.954
  H     -441.925     700.064     245.123
  H     -441.076     698.449     236.601
  H     -443.460     698.073     245.391
  H     -442.582     697.602     236.847
  H     -444.139     699.612     245.972
  P     -444.949     702.590     244.476
  C     -444.613     705.142     244.136
  O     -444.987     704.100     245.011
  O     -445.557     701.735     245.686
  O     -445.709     702.354     243.206
  H     -446.461     701.439     245.457
  H     -445.137     706.058     244.430
  H     -444.880     704.911     243.094
  H     -443.540     705.309     244.198
  H     -447.858     698.510     247.785
  H     -447.201     696.974     247.275
  H     -448.527     697.693     246.393

 3  4  5  6  7  8  9  10  11  12  13  24  27  28  29  30  32 0
 6-311+G(2d,p)
 ****
 34  35 0
 6-311+G(2d,p)
 ****
 1  2  14  15  16  17  18  19  20  21  22  23  25  26 0
 3-21G
 ****
 31  33  36  37  38  39  40  41  42  43  44  45  46 0
 3-21G
 ****


