%nproc=1
%NoSave
%Mem=1900MB
#P OB98/GEN NMR

erre ene a

0 1
  C      136.674      -4.374      15.023
  O      136.161      -4.947      13.838
  P      134.719      -4.593      13.246
  C      135.346      -4.109      10.771
  O      134.917      -3.573      12.017
  C      136.228      -3.138       9.972
  O      137.474      -2.935      10.671
  C      136.590      -3.749       8.614
  O      135.693      -3.648       7.526
  C      138.005      -3.261       8.325
  O      138.027      -2.130       7.453
  C      138.538      -2.881       9.709
  N      143.400      -3.044      11.143
  C      142.564      -1.950      11.026
  N      143.157      -0.739      11.119
  N      141.276      -2.041      10.813
  C      140.847      -3.317      10.643
  C      141.576      -4.478      10.752
  C      142.989      -4.364      11.029
  O      143.781      -5.304      11.058
  N      140.823      -5.583      10.445
  C      139.648      -5.089      10.113
  N      139.627      -3.716      10.180
  O      133.634      -4.320      14.237
  O      134.345      -5.968      12.487
  H      137.590      -2.387       6.618
  H      133.379      -6.091      12.563
  H      144.400      -2.908      11.232
  H      138.796      -5.676       9.786
  H      138.906      -1.846       9.710
  H      138.593      -4.044       7.831
  H      144.160      -0.630      11.138
  H      136.694      -4.830       8.772
  H      142.610       0.079      10.871
  H      135.762      -2.150       9.900
  H      134.449      -4.375      10.202
  H      135.901      -5.037      10.943
  P      134.345      -4.487       7.325
  C      132.544      -2.670       7.220
  O      133.142      -3.683       8.014
  O      134.521      -5.756       8.287
  O      134.084      -4.931       5.922
  H      133.945      -6.481       7.986
  H      131.969      -2.005       7.868
  H      131.869      -3.131       6.490
  H      133.306      -2.086       6.693
  H      137.652      -4.765      15.214
  H      136.028      -4.612      15.843
  H      136.731      -3.311      14.910

 3  4  5  6  7  8  9  10  11  12  23  26  30  31 0
 6-311+G(2d,p)
 ****
 33  35  36  37  38 0
 6-311+G(2d,p)
 ****
 1  2  13  14  15  16  17  18  19  20  21  22  24  25 0
 3-21G
 ****
 27  28  29  32  34  39  40  41  42  43  44  45  46  47  48  49 0
 3-21G
 ****


