%nproc=1
%NoSave
%Mem=1900MB
#P OB98/GEN NMR

erre ene a

0 1
  C      110.573     654.442     456.935
  O      110.945     653.129     457.311
  P      112.391     652.600     456.860
  C      112.425     650.613     455.156
  O      112.245     652.011     455.380
  C      111.093     649.888     455.299
  O      110.062     650.569     454.534
  C      111.115     648.461     454.767
  O      111.716     647.576     455.695
  C      109.633     648.189     454.543
  O      108.995     647.786     455.766
  C      109.118     649.574     454.092
  N      108.891     649.640     452.655
  C      108.029     648.680     452.122
  O      107.499     647.808     452.809
  N      107.825     648.737     450.776
  C      108.422     649.603     449.907
  O      108.255     649.569     448.692
  C      109.361     650.575     450.517
  C      109.545     650.548     451.833
  O      112.628     651.296     457.766
  O      113.492     653.588     457.026
  H      109.454     646.972     456.070
  H      113.566     651.230     458.005
  H      107.186     648.066     450.380
  H      109.855     651.272     449.854
  H      110.231     651.237     452.307
  H      108.176     649.808     454.600
  H      109.468     647.383     453.815
  H      111.636     648.430     453.801
  H      110.787     649.910     456.363
  H      113.142     650.237     455.905
  H      112.850     650.470     454.165
  P      112.383     646.234     455.104
  C      110.951     644.251     456.025
  O      111.170     645.194     454.999
  O      113.244     645.750     456.360
  O      113.174     646.473     453.863
  H      112.832     645.982     457.206
  H      111.190     644.663     457.004
  H      111.570     643.368     455.846
  H      109.906     643.945     456.008
  H      109.591     654.654     457.303
  H      110.579     654.523     455.868
  H      111.268     655.142     457.350

 3  4  5  6  7  8  9  10  11  12  13  23  28  29  30  31  32 0
 6-311+G(2d,p)
 ****
 33  34 0
 6-311+G(2d,p)
 ****
 1  2  14  15  16  17  18  19  20  21  22  24  25  26 0
 3-21G
 ****
 27  35  36  37  38  39  40  41  42  43  44  45 0
 3-21G
 ****


