%nproc=1
%NoSave
%Mem=1900MB
#P OB98/GEN NMR

erre ene a

0 1
  C      213.232     -27.782     733.317
  O      213.739     -27.254     732.110
  H      214.055     -28.244     733.871
  H      212.483     -28.547     733.102
  H      212.792     -26.996     733.939
  P      212.816     -26.272     731.245
  C      213.826     -24.091     732.187
  O      212.668     -24.917     732.097
  C      213.469     -22.720     732.781
  O      212.851     -22.926     734.089
  C      214.683     -21.796     732.987
  O      214.220     -20.447     732.829
  C      215.037     -22.065     734.436
  O      215.861     -21.053     734.964
  C      213.636     -22.195     735.053
  N      213.667     -22.859     736.354
  C      213.105     -22.166     737.417
  O      212.642     -21.027     737.316
  N      213.140     -22.793     738.635
  C      213.720     -24.002     738.891
  O      213.753     -24.503     740.008
  C      214.336     -24.675     737.736
  C      214.275     -24.089     736.532
  O      211.523     -26.850     730.767
  O      213.751     -25.817     730.027
  H      216.065     -21.232     735.906
  H      213.210     -25.636     729.240
  H      212.730     -22.304     739.415
  H      214.807     -25.631     737.901
  H      214.714     -24.556     735.665
  H      213.183     -21.203     735.183
  H      215.583     -23.011     734.533
  H      215.502     -22.006     732.298
  H      212.714     -22.247     732.146
  H      214.229     -23.960     731.180
  H      214.577     -24.586     732.814
  P      214.631     -19.546     731.558
  C      212.416     -19.538     730.229
  O      213.760     -20.025     730.293
  O      216.102     -19.481     731.303
  O      214.040     -18.093     731.891
  H      214.585     -17.410     731.443
  H      211.939     -19.921     729.351
  H      212.425     -18.469     730.192
  H      211.878     -19.860     731.096

 6  7  8  9  10  11  12  13  14  15  16  26  31  32  33  34  35 0
 6-311+G(2d,p)
 ****
 36  37 0
 6-311+G(2d,p)
 ****
 1  2  3  4  5  17  18  19  20  21  22  23  24  25 0
 3-21G
 ****
 27  28  29  30  38  39  40  41  42  43  44  45 0
 3-21G
 ****


