%nproc=1
%NoSave
%Mem=1900MB
#P OB98/GEN NMR

erre ene a

0 1
  C       26.247      24.585     -82.122
  O       25.202      23.632     -82.141
  H       25.808      25.584     -82.187
  H       26.913      24.439     -82.976
  H       26.813      24.512     -81.190
  P       25.586      22.078     -82.098
  C       26.321      22.305     -84.563
  O       25.554      21.568     -83.619
  C       25.689      22.208     -85.949
  O       26.383      23.062     -86.879
  C       25.712      20.805     -86.553
  O       24.650      20.021     -86.038
  C       25.534      21.135     -88.026
  O       24.152      21.454     -88.286
  C       26.401      22.399     -88.174
  N       29.733      22.289     -91.999
  C       28.363      22.456     -92.024
  N       27.796      22.582     -93.243
  N       27.614      22.486     -90.952
  C       28.306      22.277     -89.809
  C       29.660      22.082     -89.658
  C       30.487      22.119     -90.847
  O       31.709      21.998     -90.866
  N       29.988      21.810     -88.354
  C       28.840      21.895     -87.709
  N       27.784      22.168     -88.550
  O       24.787      21.229     -81.157
  O       27.145      22.066     -81.742
  H       23.622      20.685     -88.007
  H       27.286      22.001     -80.780
  H       30.257      22.267     -92.858
  H       28.715      21.772     -86.640
  H       25.986      23.099     -88.907
  H       25.802      20.305     -88.682
  H       28.295      22.419     -94.104
  H       26.686      20.324     -86.413
  H       26.786      22.647     -93.283
  H       24.660      22.585     -85.875
  H       27.329      21.879     -84.572
  H       26.389      23.356     -84.264
  P       24.928      18.702     -85.162
  C       23.462      17.338     -86.799
  O       23.688      17.729     -85.456
  O       25.194      18.955     -83.719
  O       26.118      17.963     -85.928
  H       27.012      18.299     -85.666
  H       22.608      16.694     -86.844
  H       24.321      16.818     -87.168
  H       23.286      18.207     -87.399

 6  7  8  9  10  11  12  13  14  15  26  29  33  34 0
 6-311+G(2d,p)
 ****
 36  38  39  40  41 0
 6-311+G(2d,p)
 ****
 1  2  3  4  5  16  17  18  19  20  21  22  23  24  25 0
 3-21G
 ****
 27  28  30  31  32  35  37  42  43  44  45  46  47 0
 3-21G
 ****
 48  49 0
 3-21G
 ****


