%nproc=1
%NoSave
%Mem=1900MB
#P OB98/GEN NMR

erre ene a

0 1
  C     -246.831     223.610      -6.718
  O     -245.922     224.208      -5.810
  P     -244.571     223.395      -5.462
  C     -242.990     225.445      -5.929
  O     -243.398     224.129      -6.272
  C     -243.426     226.435      -7.022
  O     -244.849     226.606      -6.991
  C     -242.838     227.836      -6.878
  O     -241.490     227.889      -7.295
  C     -243.805     228.650      -7.725
  O     -243.468     228.515      -9.123
  C     -245.146     227.955      -7.430
  N     -245.970     228.672      -6.468
  C     -247.212     229.114      -6.908
  O     -247.622     228.928      -8.046
  N     -247.962     229.810      -5.987
  C     -247.577     230.144      -4.723
  O     -248.262     230.815      -3.956
  C     -246.240     229.679      -4.311
  C     -245.510     228.974      -5.192
  O     -244.834     222.040      -6.267
  O     -244.346     223.235      -3.996
  H     -245.425     222.176      -7.039
  H     -243.547     227.556      -9.331
  H     -248.876     230.121      -6.281
  H     -245.887     229.935      -3.330
  H     -244.525     228.633      -4.916
  H     -245.737     227.839      -8.362
  H     -243.791     229.715      -7.486
  H     -242.904     228.165      -5.827
  H     -243.158     226.010      -8.001
  H     -241.899     225.459      -5.840
  H     -243.438     225.727      -4.964
  P     -240.370     227.964      -6.142
  C     -238.483     226.687      -7.437
  O     -239.415     226.690      -6.366
  O     -241.239     227.580      -4.852
  O     -239.685     229.286      -6.049
  H     -241.861     226.845      -5.018
  H     -237.708     225.948      -7.223
  H     -238.020     227.653      -7.580
  H     -239.011     226.393      -8.374
  H     -247.674     224.254      -6.855
  H     -247.160     222.670      -6.326
  H     -246.345     223.454      -7.658

 3  4  5  6  7  8  9  10  11  12  13  24  28  29  30  31  32 0
 6-311+G(2d,p)
 ****
 33  34 0
 6-311+G(2d,p)
 ****
 1  2  14  15  16  17  18  19  20  21  22  23  25  26  27 0
 3-21G
 ****
 35  36  37  38  39  40  41  42  43  44  45 0
 3-21G
 ****


