%nproc=1
%NoSave
%Mem=1900MB
#P OB98/GEN NMR

erre ene a

0 1
  C      -28.323    -141.322    -223.237
  O      -29.716    -141.102    -223.322
  H      -27.801    -140.459    -223.664
  H      -28.048    -142.214    -223.804
  H      -28.015    -141.437    -222.193
  P      -30.670    -142.197    -222.646
  C      -31.364    -143.458    -224.816
  O      -30.625    -143.488    -223.603
  C      -31.904    -144.858    -225.127
  O      -30.776    -145.764    -225.282
  C      -32.801    -145.426    -224.013
  O      -33.852    -146.189    -224.610
  C      -31.861    -146.344    -223.251
  O      -32.532    -147.369    -222.528
  C      -30.984    -146.880    -224.387
  N      -29.710    -147.408    -223.915
  C      -29.722    -148.644    -223.271
  O      -30.718    -149.353    -223.137
  N      -28.515    -149.058    -222.756
  C      -27.338    -148.368    -222.806
  O      -26.294    -148.778    -222.309
  C      -27.389    -147.066    -223.492
  C      -28.555    -146.652    -224.003
  O      -32.142    -141.611    -222.891
  O      -30.400    -142.489    -221.209
  H      -32.409    -141.043    -222.146
  H      -31.858    -147.887    -222.041
  H      -28.508    -149.951    -222.288
  H      -26.477    -146.486    -223.543
  H      -28.626    -145.691    -224.501
  H      -31.518    -147.655    -224.953
  H      -31.264    -145.766    -222.540
  H      -33.221    -144.650    -223.372
  H      -32.434    -144.833    -226.086
  H      -30.707    -143.137    -225.629
  H      -32.191    -142.747    -224.719
  P      -35.357    -145.639    -224.435
  C      -36.089    -146.567    -222.098
  O      -35.579    -145.479    -222.850
  O      -36.210    -146.930    -224.827
  O      -35.628    -144.418    -225.250
  H      -35.815    -147.767    -224.534
  H      -36.170    -146.283    -221.070
  H      -35.427    -147.403    -222.186
  H      -37.055    -146.837    -222.471

 6  7  8  9  10  11  12  13  14  15  16  27  31  32  33  34  35 0
 6-311+G(2d,p)
 ****
 36  37 0
 6-311+G(2d,p)
 ****
 1  2  3  4  5  17  18  19  20  21  22  23  24  25 0
 3-21G
 ****
 26  28  29  30  38  39  40  41  42  43  44  45 0
 3-21G
 ****


