%nproc=1
%NoSave
%Mem=1900MB
#P OB98/GEN NMR

erre ene a

0 1
  C     -351.187      76.181     158.217
  O     -352.586      76.003     158.285
  H     -350.774      76.141     159.230
  H     -350.940      77.153     157.778
  H     -350.735      75.377     157.624
  P     -353.458      76.182     156.953
  C     -355.086      77.867     158.015
  O     -354.939      76.583     157.424
  C     -356.506      78.054     158.563
  O     -357.404      78.299     157.448
  C     -357.031      76.834     159.333
  O     -357.816      77.300     160.437
  C     -357.906      76.146     158.310
  O     -358.887      75.325     158.923
  C     -358.462      77.323     157.501
  N     -358.888      76.908     156.173
  C     -360.270      76.951     155.917
  O     -361.052      77.334     156.794
  N     -360.744      76.487     154.719
  C     -359.914      75.973     153.857
  N     -360.447      75.501     152.696
  C     -358.459      75.886     154.086
  C     -358.021      76.370     155.247
  O     -353.396      75.053     155.974
  O     -352.895      77.544     156.316
  H     -359.392      74.849     158.218
  H     -352.162      77.348     155.696
  H     -357.812      75.442     153.340
  H     -356.965      76.336     155.516
  H     -359.314      77.784     158.022
  H     -357.293      75.503     157.666
  H     -356.228      76.180     159.699
  H     -356.524      78.954     159.189
  H     -361.465      75.555     152.593
  H     -354.888      78.622     157.239
  H     -359.918      75.042     151.972
  H     -354.356      77.995     158.819
  P     -357.349      77.014     161.951
  C     -359.786      76.797     162.678
  O     -358.541      77.425     162.951
  O     -356.012      77.587     162.310
  O     -357.323      75.410     162.041
  H     -356.641      75.141     162.686
  H     -360.515      77.127     163.388
  H     -359.673      75.735     162.750
  H     -360.107      77.056     161.691

 6  7  8  9  10  11  12  13  14  15  16  26  30  31  32  33  35 0
 6-311+G(2d,p)
 ****
 37  38 0
 6-311+G(2d,p)
 ****
 1  2  3  4  5  17  18  19  20  21  22  23  24  25 0
 3-21G
 ****
 27  28  29  34  36  39  40  41  42  43  44  45  46 0
 3-21G
 ****


