%nproc=1
%NoSave
%Mem=1900MB
#P OB98/GEN NMR

erre ene a

0 1
  C       36.207     111.610      20.952
  O       36.601     110.253      20.982
  H       35.184     111.671      20.571
  H       36.866     112.175      20.287
  H       36.238     112.038      21.958
  P       38.008     109.921      21.670
  C       40.517     110.442      21.096
  O       39.158     110.445      20.677
  C       41.435     110.599      19.886
  O       41.281     109.500      18.966
  C       41.135     111.825      19.040
  O       41.505     113.030      19.671
  C       41.945     111.504      17.793
  O       43.337     111.790      17.993
  C       41.714     109.978      17.664
  N       40.754     109.647      16.620
  C       41.298     109.347      15.365
  O       42.518     109.362      15.197
  N       40.443     109.067      14.328
  C       39.163     109.060      14.530
  N       38.372     108.784      13.460
  C       38.550     109.343      15.841
  C       39.395     109.632      16.829
  O       38.107     108.332      21.516
  O       38.168     110.419      23.068
  H       43.606     111.297      18.793
  H       37.986     108.021      20.604
  H       37.477     109.318      15.965
  H       39.028     109.853      17.823
  H       42.656     109.464      17.436
  H       41.621     112.090      16.931
  H       40.074     111.838      18.757
  H       42.473     110.603      20.245
  H       38.826     108.614      12.571
  H       40.754     109.525      21.644
  H       37.363     108.782      13.489
  H       40.652     111.282      21.784
  P       40.734     114.396      19.338
  C       40.333     115.742      17.181
  O       41.176     114.810      17.851
  O       40.890     115.476      20.355
  O       39.221     113.920      19.122
  H       39.096     113.276      18.402
  H       40.725     115.940      16.205
  H       40.292     116.653      17.741
  H       39.348     115.333      17.093

 6  7  8  9  10  11  12  13  14  15  16  26  30  31  32  33  35 0
 6-311+G(2d,p)
 ****
 37  38 0
 6-311+G(2d,p)
 ****
 1  2  3  4  5  17  18  19  20  21  22  23  24  25 0
 3-21G
 ****
 27  28  29  34  36  39  40  41  42  43  44  45  46 0
 3-21G
 ****


