%nproc=1
%NoSave
%Mem=1900MB
#P OB98/GEN NMR

erre ene a

0 1
  C     -268.565      58.124    -298.737
  O     -267.312      57.968    -298.101
  H     -268.398      58.413    -299.780
  H     -269.141      58.908    -298.243
  H     -269.120      57.181    -298.717
  P     -267.334      57.545    -296.552
  C     -266.013      55.337    -296.892
  O     -266.024      56.639    -296.319
  C     -264.614      55.003    -297.422
  O     -264.495      55.508    -298.782
  C     -263.474      55.618    -296.600
  O     -262.391      54.684    -296.543
  C     -263.053      56.814    -297.435
  O     -261.714      57.217    -297.158
  C     -263.272      56.265    -298.841
  N     -260.540      59.061    -302.012
  C     -260.164      58.030    -301.173
  N     -258.855      57.685    -301.176
  N     -260.999      57.388    -300.398
  C     -262.276      57.815    -300.518
  C     -262.775      58.833    -301.299
  C     -261.838      59.549    -302.138
  O     -262.106      60.484    -302.880
  N     -264.129      58.983    -301.109
  C     -264.444      58.061    -300.216
  N     -263.356      57.326    -299.832
  O     -268.533      56.485    -296.470
  O     -267.503      58.664    -295.583
  H     -261.477      57.922    -297.789
  H     -268.955      56.508    -295.591
  H     -259.857      59.528    -302.581
  H     -265.437      57.887    -299.820
  H     -262.463      55.594    -299.160
  H     -263.717      57.663    -297.235
  H     -258.160      58.114    -301.771
  H     -263.766      55.897    -295.584
  H     -258.559      56.923    -300.575
  H     -264.518      53.913    -297.480
  H     -266.733      55.305    -297.717
  H     -266.303      54.608    -296.131
  P     -261.939      54.156    -295.100
  C     -261.916      51.645    -295.767
  O     -261.177      52.750    -295.277
  O     -263.328      53.736    -294.423
  O     -261.220      55.175    -294.278
  H     -263.560      54.373    -293.725
  H     -261.278      50.788    -295.829
  H     -262.300      51.875    -296.739
  H     -262.729      51.437    -295.103

 6  7  8  9  10  11  12  13  14  15  26  29  33  34 0
 6-311+G(2d,p)
 ****
 36  38  39  40  41 0
 6-311+G(2d,p)
 ****
 1  2  3  4  5  16  17  18  19  20  21  22  23  24  25 0
 3-21G
 ****
 27  28  30  31  32  35  37  42  43  44  45  46  47 0
 3-21G
 ****
 48  49 0
 3-21G
 ****


