%nproc=1
%NoSave
%Mem=1900MB
#P OB98/GEN NMR

erre ene a

0 1
  C     -894.120     -17.071    -893.810
  O     -893.620     -16.797    -895.130
  P     -892.720     -17.925    -895.840
  C     -894.550     -18.695    -897.480
  O     -893.670     -19.067    -896.450
  C     -895.350     -19.930    -898.030
  O     -894.420     -20.942    -898.540
  C     -896.190     -20.591    -896.990
  O     -897.400     -21.092    -897.590
  C     -895.340     -21.789    -896.510
  O     -896.110     -22.779    -895.840
  C     -894.730     -22.184    -897.900
  N     -892.910     -26.937    -897.730
  C     -894.150     -26.464    -897.870
  N     -894.560     -25.173    -897.920
  C     -893.500     -24.329    -897.720
  C     -892.170     -24.679    -897.530
  C     -891.870     -26.047    -897.520
  N     -890.630     -26.564    -897.310
  N     -891.390     -23.547    -897.360
  C     -892.250     -22.559    -897.470
  N     -893.520     -22.952    -897.730
  O     -891.970     -18.663    -894.570
  O     -891.690     -17.376    -896.790
  H     -895.530     -23.602    -895.770
  H     -891.060     -18.398    -894.560
  H     -894.930     -27.194    -898.050
  H     -891.970     -21.479    -897.340
  H     -895.410     -22.757    -898.510
  H     -894.580     -21.429    -895.810
  H     -896.500     -19.948    -896.100
  H     -896.010     -19.572    -898.870
  H     -893.970     -18.249    -898.310
  H     -890.500     -27.569    -897.290
  H     -889.860     -25.920    -897.130
  H     -895.230     -17.911    -897.160
  P     -898.780     -20.355    -897.270
  C     -898.740     -19.109    -899.540
  O     -898.740     -18.977    -898.150
  O     -898.550     -19.768    -895.780
  O     -900.000     -21.183    -897.360
  H     -899.410     -19.685    -895.310
  H     -899.400     -18.370    -900.000
  H     -899.040     -20.094    -899.890
  H     -897.710     -18.924    -899.940
  H     -894.697     -16.238    -893.467
  H     -893.298     -17.234    -893.144
  H     -894.736     -17.945    -893.836

 3  4  5  6  7  8  9  10  11  12  22  25  29  30  31  32 0
 6-311+G(2d,p)
 ****
 33  36  37 0
 6-311+G(2d,p)
 ****
 1  2  13  14  15  16  17  18  19  20  21  23  24  26 0
 3-21G
 ****
 27  28  34  35  38  39  40  41  42  43  44  45  46  47  48 0
 3-21G
 ****


