%nproc=1
%NoSave
%Mem=1900MB
#P OB98/GEN NMR

erre ene a

0 1
  C      132.226    -785.552      61.288
  O      131.488    -784.584      62.015
  H      131.705    -785.806      60.357
  H      133.206    -785.133      61.039
  H      132.369    -786.451      61.895
  P      129.975    -784.978      62.380
  C      129.108    -783.351      60.551
  O      129.101    -784.677      61.064
  C      129.059    -783.376      59.028
  O      130.144    -784.182      58.512
  C      127.792    -783.982      58.438
  O      126.701    -783.066      58.460
  C      128.251    -784.273      57.015
  O      128.195    -783.060      56.236
  C      129.711    -784.696      57.217
  N      130.023    -788.894      54.271
  C      129.809    -787.587      53.962
  N      129.728    -786.528      54.793
  C      129.908    -786.916      56.082
  C      130.132    -788.210      56.538
  C      130.181    -789.228      55.569
  N      130.375    -790.555      55.898
  N      130.275    -788.216      57.907
  C      130.149    -786.960      58.274
  N      129.912    -786.134      57.201
  O      129.527    -783.814      63.394
  O      129.791    -786.331      62.981
  H      127.249    -782.908      56.019
  H      128.931    -784.200      64.068
  H      129.696    -787.363      52.903
  H      130.216    -786.599      59.289
  H      130.365    -784.256      56.466
  H      127.637    -785.014      56.510
  H      127.535    -784.927      58.933
  H      129.204    -782.350      58.664
  H      130.022    -782.842      60.872
  H      130.599    -791.201      55.157
  H      130.495    -790.797      56.877
  H      128.245    -782.814      60.946
  P      125.424    -783.456      59.357
  C      124.488    -784.167      57.044
  O      124.545    -784.435      58.449
  O      124.579    -782.103      59.376
  O      125.739    -783.936      60.736
  H      124.015    -782.075      60.177
  H      123.868    -784.897      56.566
  H      125.474    -784.212      56.632
  H      124.078    -783.192      56.883

 6  7  8  9  10  11  12  13  14  15  25  28  32  33  34  35 0
 6-311+G(2d,p)
 ****
 36  39  40 0
 6-311+G(2d,p)
 ****
 1  2  3  4  5  16  17  18  19  20  21  22  23  24 0
 3-21G
 ****
 26  27  29  30  31  37  38  41  42  43  44  45  46  47  48 0
 3-21G
 ****


