%nproc=1
%NoSave
%Mem=1900MB
#P OB98/GEN NMR

erre ene a

0 1
  C     -267.124     214.906     348.673
  O     -267.499     214.263     347.470
  H     -267.891     214.713     349.428
  H     -267.049     215.986     348.516
  H     -266.169     214.511     349.030
  P     -266.483     214.407     346.236
  C     -268.054     216.219     345.264
  O     -266.739     215.894     345.685
  C     -268.013     217.206     344.098
  O     -269.332     217.419     343.566
  C     -267.487     218.590     344.467
  O     -266.070     218.598     344.505
  C     -268.025     219.413     343.305
  O     -267.181     219.236     342.151
  C     -269.403     218.773     343.051
  N     -272.401     222.939     342.964
  C     -271.260     222.644     342.307
  N     -270.494     221.534     342.413
  C     -271.012     220.679     343.304
  C     -272.171     220.846     344.048
  C     -272.890     222.038     343.846
  N     -274.059     222.331     344.510
  N     -272.390     219.756     344.867
  C     -271.411     218.921     344.578
  N     -270.531     219.447     343.667
  O     -266.526     213.310     345.230
  O     -265.086     214.565     347.008
  H     -267.310     218.325     341.830
  H     -265.199     215.110     347.807
  H     -270.911     223.393     341.600
  H     -271.301     217.925     344.988
  H     -269.627     218.707     341.981
  H     -268.039     220.483     343.527
  H     -267.931     218.952     345.399
  H     -267.408     216.758     343.301
  H     -268.626     216.648     346.093
  H     -274.414     223.272     344.432
  H     -274.349     221.715     345.255
  H     -268.541     215.289     344.953
  P     -265.288     219.311     345.708
  C     -265.245     221.547     344.441
  O     -265.651     220.873     345.626
  O     -263.832     219.017     345.778
  O     -266.057     218.832     347.025
  H     -265.422     218.676     347.751
  H     -265.538     222.575     344.497
  H     -265.710     221.089     343.593
  H     -264.182     221.484     344.341

 6  7  8  9  10  11  12  13  14  15  25  28  32  33  34  35 0
 6-311+G(2d,p)
 ****
 36  39  40 0
 6-311+G(2d,p)
 ****
 1  2  3  4  5  16  17  18  19  20  21  22  23  24 0
 3-21G
 ****
 26  27  29  30  31  37  38  41  42  43  44  45  46  47 0
 3-21G
 ****
 48 0
 3-21G
 ****


