%nproc=1
%NoSave
%Mem=1900MB
#P OB98/GEN NMR

erre ene a

0 1
  C      381.476     -40.027      22.787
  O      380.680     -38.880      22.556
  H      381.563     -40.587      21.851
  H      380.993     -40.664      23.534
  H      382.478     -39.746      23.127
  P      380.693     -37.751      23.698
  C      378.682     -38.975      24.797
  O      379.964     -38.391      24.978
  C      378.096     -39.399      26.142
  O      378.930     -40.409      26.757
  C      377.973     -38.267      27.158
  O      376.782     -37.514      26.959
  C      377.906     -39.057      28.452
  O      376.588     -39.626      28.612
  C      378.927     -40.181      28.197
  N      383.367     -42.132      29.680
  C      382.177     -42.764      29.382
  N      382.164     -44.112      29.502
  N      381.093     -42.140      29.003
  C      381.242     -40.796      28.948
  C      382.370     -40.049      29.226
  C      383.565     -40.758      29.629
  O      384.649     -40.244      29.896
  N      382.144     -38.711      29.063
  C      380.874     -38.639      28.706
  N      380.281     -39.877      28.626
  O      379.630     -36.683      23.149
  O      382.019     -37.114      23.952
  H      375.946     -38.943      28.337
  H      380.113     -35.927      22.766
  H      384.170     -42.664      29.977
  H      380.342     -37.723      28.490
  H      378.643     -41.121      28.676
  H      378.094     -38.442      29.333
  H      382.958     -44.654      29.812
  H      378.861     -37.623      27.161
  H      381.302     -44.598      29.284
  H      377.118     -39.856      25.949
  H      378.779     -39.851      24.147
  H      378.024     -38.244      24.317
  P      376.865     -35.920      27.078
  C      375.950     -36.038      29.504
  O      376.984     -35.570      28.642
  O      375.377     -35.461      26.702
  O      377.873     -35.266      26.198
  H      375.375     -34.997      25.846
  H      376.158     -35.734      30.509
  H      375.903     -37.106      29.457
  H      375.013     -35.625      29.194

 6  7  8  9  10  11  12  13  14  15  26  29  33  34 0
 6-311+G(2d,p)
 ****
 36  38  39  40  41 0
 6-311+G(2d,p)
 ****
 1  2  3  4  5  16  17  18  19  20  21  22  23  24  25 0
 3-21G
 ****
 27  28  30  31  32  35  37  42  43  44  45  46  47 0
 3-21G
 ****
 48  49 0
 3-21G
 ****


