%nproc=1
%NoSave
%Mem=1900MB
#P OB98/GEN NMR

erre ene a

0 1
  C      334.234    -245.624    -224.830
  O      334.550    -245.642    -223.450
  H      333.169    -245.832    -224.965
  H      334.447    -244.624    -225.222
  H      334.834    -246.354    -225.378
  P      334.601    -247.073    -222.735
  C      337.185    -247.285    -222.890
  O      335.922    -247.809    -223.279
  C      337.775    -248.097    -221.739
  O      337.949    -249.471    -222.188
  C      339.135    -247.595    -221.233
  O      339.172    -247.725    -219.804
  C      340.122    -248.569    -221.849
  O      341.331    -248.670    -221.103
  C      339.302    -249.849    -221.858
  N      343.339    -252.741    -222.962
  C      342.957    -252.119    -221.831
  N      341.831    -251.413    -221.600
  C      341.030    -251.436    -222.680
  C      341.276    -252.035    -223.909
  C      342.508    -252.703    -224.033
  N      342.932    -253.279    -225.210
  N      340.232    -251.792    -224.782
  C      339.382    -251.038    -224.102
  N      339.825    -250.796    -222.823
  O      333.405    -247.866    -223.454
  O      334.441    -247.063    -221.245
  H      341.770    -247.799    -221.098
  H      332.570    -247.694    -222.983
  H      343.654    -252.189    -220.994
  H      338.464    -250.620    -224.488
  H      339.288    -250.359    -220.879
  H      340.366    -248.250    -222.865
  H      339.354    -246.553    -221.510
  H      337.042    -248.121    -220.917
  H      337.054    -246.244    -222.559
  H      343.879    -253.642    -225.241
  H      342.379    -253.161    -226.043
  H      337.862    -247.299    -223.750
  P      339.524    -246.418    -218.942
  C      337.331    -246.030    -217.590
  O      338.160    -245.618    -218.670
  O      340.300    -245.491    -219.988
  O      340.353    -246.701    -217.735
  H      340.969    -244.958    -219.530
  H      336.467    -245.400    -217.543
  H      337.877    -245.956    -216.673
  H      337.025    -247.044    -217.742

 6  7  8  9  10  11  12  13  14  15  25  28  32  33  34  35 0
 6-311+G(2d,p)
 ****
 36  39  40 0
 6-311+G(2d,p)
 ****
 1  2  3  4  5  16  17  18  19  20  21  22  23  24 0
 3-21G
 ****
 26  27  29  30  31  37  38  41  42  43  44  45  46  47 0
 3-21G
 ****
 48 0
 3-21G
 ****


