%nproc=1
%NoSave
%Mem=1900MB
#P OB98/GEN NMR

erre ene a

0 1
  C     -401.561    -743.617     112.485
  O     -401.613    -744.870     113.146
  P     -403.043    -745.387     113.700
  C     -402.983    -747.695     112.479
  O     -403.582    -746.409     112.583
  C     -403.725    -748.559     111.433
  O     -405.134    -748.645     111.800
  C     -403.634    -748.027     109.992
  O     -403.539    -749.189     109.127
  C     -404.968    -747.325     109.816
  O     -405.321    -747.223     108.427
  C     -405.888    -748.264     110.619
  N     -407.155    -747.629     110.995
  C     -408.219    -747.824     110.125
  O     -408.125    -748.426     109.047
  N     -409.417    -747.258     110.503
  C     -409.620    -746.461     111.602
  O     -410.692    -745.972     111.911
  C     -408.408    -746.189     112.423
  C     -407.262    -746.779     112.061
  O     -403.925    -744.073     113.468
  O     -402.980    -745.906     115.094
  H     -403.697    -743.562     112.663
  H     -405.251    -748.110     108.010
  H     -410.210    -747.424     109.917
  H     -408.509    -745.512     113.251
  H     -406.350    -746.573     112.637
  H     -406.112    -749.175     110.052
  H     -404.940    -746.317     110.251
  H     -402.779    -747.367     109.838
  H     -403.294    -749.577     111.480
  H     -403.014    -748.222     113.447
  H     -401.916    -747.562     112.208
  P     -402.144    -749.470     108.407
  C     -401.483    -751.505     109.922
  O     -401.174    -750.209     109.469
  O     -401.535    -747.991     108.337
  O     -402.257    -750.111     107.052
  H     -401.603    -747.508     109.178
  H     -400.587    -751.907     110.432
  H     -401.712    -752.170     109.084
  H     -402.310    -751.487     110.611
  H     -400.555    -743.416     112.180
  H     -401.892    -742.848     113.152
  H     -402.197    -743.641     111.625

 3  4  5  6  7  8  9  10  11  12  13  24  28  29  30  31  32 0
 6-311+G(2d,p)
 ****
 33  34 0
 6-311+G(2d,p)
 ****
 1  2  14  15  16  17  18  19  20  21  22  23  25  26  27 0
 3-21G
 ****
 35  36  37  38  39  40  41  42  43  44  45 0
 3-21G
 ****


