%nproc=1
%NoSave
%Mem=1900MB
#P OB98/GEN NMR

erre ene a

0 1
  C     -179.689    -314.437      18.001
  O     -180.408    -314.174      16.813
  P     -179.951    -314.823      15.420
  C     -180.658    -312.522      14.489
  O     -180.661    -313.933      14.284
  C     -181.139    -311.792      13.234
  O     -180.227    -312.006      12.142
  C     -182.503    -312.251      12.733
  O     -183.539    -311.703      13.530
  C     -182.471    -311.746      11.296
  O     -182.829    -310.355      11.225
  C     -180.988    -311.948      10.916
  N     -180.781    -313.135      10.094
  C     -180.933    -312.954       8.713
  O     -181.254    -311.856       8.258
  N     -180.761    -314.039       7.888
  C     -180.490    -315.200       8.398
  N     -180.342    -316.236       7.526
  C     -180.351    -315.436       9.848
  C     -180.512    -314.371      10.629
  O     -180.155    -316.296      15.304
  O     -178.414    -314.385      15.306
  H     -182.990    -310.166      10.280
  H     -177.842    -314.906      15.920
  H     -180.137    -316.425      10.226
  H     -180.433    -314.455      11.708
  H     -180.612    -311.077      10.362
  H     -183.170    -312.292      10.655
  H     -182.550    -313.346      12.736
  H     -181.162    -310.716      13.456
  H     -180.476    -316.038       6.541
  H     -179.636    -312.210      14.719
  H     -180.169    -317.185       7.817
  H     -181.295    -312.281      15.347
  P     -184.372    -312.649      14.513
  C     -186.673    -312.058      13.538
  O     -185.835    -312.015      14.677
  O     -183.686    -313.010      15.790
  O     -184.647    -313.958      13.631
  H     -184.481    -314.750      14.177
  H     -187.707    -311.916      13.859
  H     -186.587    -313.017      13.022
  H     -186.397    -311.249      12.855
  H     -180.146    -313.917      18.817
  H     -178.678    -314.104      17.887
  H     -179.698    -315.489      18.198

 3  4  5  6  7  8  9  10  11  12  13  23  27  28  29  30  32 0
 6-311+G(2d,p)
 ****
 34  35 0
 6-311+G(2d,p)
 ****
 1  2  14  15  16  17  18  19  20  21  22  24  25  26 0
 3-21G
 ****
 31  33  36  37  38  39  40  41  42  43  44  45  46 0
 3-21G
 ****


