%nproc=1
%NoSave
%Mem=1900MB
#P OB98/GEN NMR

erre ene a

0 1
  C     -110.670     131.344     -33.140
  O     -111.667     132.308     -33.499
  P     -111.479     133.080     -34.895
  C     -113.362     133.983     -36.481
  O     -112.864     133.844     -35.156
  C     -114.494     135.005     -36.507
  O     -115.591     134.579     -35.662
  C     -114.104     136.385     -35.993
  O     -113.310     137.084     -36.942
  C     -115.474     136.996     -35.729
  O     -116.052     137.479     -36.954
  C     -116.273     135.774     -35.218
  N     -116.458     135.780     -33.774
  C     -117.388     136.693     -33.285
  O     -118.009     137.475     -34.006
  N     -117.572     136.692     -31.925
  C     -116.904     135.908     -31.028
  O     -117.117     135.946     -29.823
  C     -115.899     135.000     -31.600
  C     -115.724     134.976     -32.925
  O     -111.497     131.859     -35.926
  O     -110.251     133.927     -34.933
  H     -112.097     131.142     -35.661
  H     -115.400     138.097     -37.339
  H     -118.253     137.337     -31.553
  H     -115.332     134.380     -30.913
  H     -114.981     134.314     -33.364
  H     -117.268     135.751     -35.686
  H     -115.430     137.837     -35.031
  H     -113.553     136.288     -35.050
  H     -114.866     135.078     -37.541
  H     -113.738     133.019     -36.838
  H     -112.542     134.282     -37.138
  P     -111.919     137.694     -36.413
  C     -109.580     137.880     -37.569
  O     -110.984     137.875     -37.701
  O     -111.297     136.430     -35.652
  O     -112.085     138.907     -35.560
  H     -111.385     135.601     -36.154
  H     -109.133     137.661     -38.543
  H     -109.244     137.124     -36.854
  H     -109.246     138.867     -37.240
  H     -110.918     130.909     -32.194
  H     -109.717     131.825     -33.072
  H     -110.630     130.577     -33.885

 3  4  5  6  7  8  9  10  11  12  13  24  28  29  30  31  32 0
 6-311+G(2d,p)
 ****
 33  34 0
 6-311+G(2d,p)
 ****
 1  2  14  15  16  17  18  19  20  21  22  23  25  26  27 0
 3-21G
 ****
 35  36  37  38  39  40  41  42  43  44  45 0
 3-21G
 ****


