%nproc=1
%NoSave
%Mem=1900MB
#P OB98/GEN NMR

erre ene a

0 1
  C      591.526     268.876    -314.428
  O      590.702     267.979    -315.145
  H      592.444     268.355    -314.143
  H      591.020     269.221    -313.525
  H      591.789     269.729    -315.057
  P      589.270     268.543    -315.613
  C      587.793     266.491    -315.105
  O      588.474     267.236    -316.111
  C      588.070     264.995    -315.268
  O      587.688     264.595    -316.611
  C      589.552     264.625    -315.083
  O      589.634     263.346    -314.452
  C      590.056     264.511    -316.516
  O      591.217     263.688    -316.612
  C      588.818     263.959    -317.223
  N      590.452     262.163    -321.708
  C      590.399     261.616    -320.478
  N      589.927     262.160    -319.339
  C      589.416     263.384    -319.570
  C      589.402     264.078    -320.765
  C      589.958     263.421    -321.876
  N      590.042     263.984    -323.124
  N      588.836     265.328    -320.589
  C      588.511     265.385    -319.312
  N      588.859     264.230    -318.652
  O      589.310     269.670    -316.590
  O      588.570     268.866    -314.212
  H      591.356     263.460    -317.557
  H      588.680     268.131    -313.577
  H      590.805     260.601    -320.398
  H      588.033     266.222    -318.817
  H      588.712     262.864    -317.108
  H      590.310     265.499    -316.897
  H      590.108     265.362    -314.511
  H      587.432     264.435    -314.573
  H      586.711     266.668    -315.173
  H      590.463     263.445    -323.872
  H      589.679     264.916    -323.281
  H      588.144     266.839    -314.129
  P      589.902     263.273    -312.878
  C      591.888     261.640    -312.704
  O      590.484     261.826    -312.513
  O      588.775     263.729    -312.003
  O      591.183     264.221    -312.685
  H      591.070     264.776    -311.891
  H      592.156     260.642    -312.428
  H      592.426     262.335    -312.094
  H      592.133     261.804    -313.733

 6  7  8  9  10  11  12  13  14  15  25  28  32  33  34  35 0
 6-311+G(2d,p)
 ****
 36  39  40 0
 6-311+G(2d,p)
 ****
 1  2  3  4  5  16  17  18  19  20  21  22  23  24 0
 3-21G
 ****
 26  27  29  30  31  37  38  41  42  43  44  45  46  47 0
 3-21G
 ****
 48 0
 3-21G
 ****


