%nproc=1
%NoSave
%Mem=1900MB
#P OB98/GEN NMR

erre ene a

0 1
  C       95.459     424.543     -11.456
  O       95.212     424.921     -12.798
  P       93.705     424.809     -13.341
  C       94.430     422.961     -15.022
  O       93.556     423.340     -13.965
  C       93.894     421.715     -15.726
  O       93.926     420.575     -14.845
  C       92.444     421.829     -16.178
  O       92.313     422.536     -17.404
  C       92.080     420.366     -16.370
  O       92.582     419.896     -17.635
  C       92.836     419.694     -15.214
  N       88.496     417.634     -13.630
  C       89.131     417.520     -14.851
  N       88.496     416.805     -15.799
  N       90.297     418.057     -15.113
  C       90.815     418.754     -14.072
  C       90.279     418.932     -12.817
  C       88.985     418.342     -12.542
  O       88.348     418.452     -11.503
  N       91.102     419.689     -12.025
  C       92.134     419.968     -12.794
  N       91.987     419.458     -14.060
  O       93.705     425.758     -14.631
  O       92.660     425.203     -12.354
  H       93.559     419.912     -17.569
  H       92.791     425.981     -14.880
  H       87.597     417.204     -13.476
  H       92.998     420.543     -12.487
  H       93.275     418.739     -15.511
  H       91.001     420.191     -16.371
  H       87.569     416.422     -15.680
  H       91.812     422.261     -15.393
  H       88.908     416.761     -16.723
  H       94.550     421.503     -16.580
  H       95.419     422.754     -14.613
  H       94.512     423.788     -15.733
  P       90.820     422.825     -17.914
  C       91.354     421.923     -20.292
  O       90.574     421.796     -19.117
  O       90.958     424.243     -18.642
  O       89.788     422.838     -16.837
  H       90.105     424.715     -18.632
  H       91.250     421.008     -20.879
  H       92.410     422.066     -20.051
  H       90.994     422.764     -20.889
  H       96.498     424.669     -11.236
  H       95.187     423.517     -11.319
  H       94.878     425.157     -10.800

 3  4  5  6  7  8  9  10  11  12  23  26  30  31 0
 6-311+G(2d,p)
 ****
 33  35  36  37  38 0
 6-311+G(2d,p)
 ****
 1  2  13  14  15  16  17  18  19  20  21  22  24  25 0
 3-21G
 ****
 27  28  29  32  34  39  40  41  42  43  44  45  46  47  48  49 0
 3-21G
 ****


