%nproc=1
%NoSave
%Mem=1900MB
#P OB98/GEN NMR

erre ene a

0 1
  C       20.784     -14.384      38.409
  O       21.802     -13.986      39.317
  P       22.773     -15.129      39.892
  C       21.507     -15.348      42.138
  O       21.900     -15.990      40.931
  C       20.738     -16.312      43.037
  O       19.458     -16.617      42.415
  C       21.455     -17.647      43.296
  O       21.329     -17.992      44.683
  C       20.639     -18.651      42.496
  O       20.748     -19.967      43.023
  C       19.246     -18.031      42.613
  N       16.921     -22.194      40.940
  C       17.666     -22.000      42.088
  N       17.866     -23.086      42.868
  N       18.175     -20.848      42.439
  C       17.869     -19.843      41.580
  C       17.135     -19.909      40.417
  C       16.630     -21.205      40.012
  O       16.039     -21.459      38.962
  N       17.026     -18.675      39.825
  C       17.696     -17.866      40.623
  N       18.270     -18.536      41.675
  O       23.775     -14.302      40.830
  O       23.516     -15.912      38.865
  H       21.679     -20.241      42.919
  H       24.696     -14.468      40.553
  H       16.569     -23.109      40.709
  H       17.823     -16.801      40.462
  H       18.844     -18.175      43.625
  H       20.992     -18.656      41.458
  H       17.472     -23.996      42.675
  H       22.510     -17.653      43.009
  H       18.388     -22.959      43.727
  H       20.515     -15.801      43.984
  H       20.868     -14.491      41.899
  H       22.403     -14.986      42.656
  P       22.452     -18.982      45.266
  C       20.766     -20.971      45.276
  O       22.004     -20.457      44.826
  O       22.182     -18.958      46.847
  O       23.849     -18.586      44.918
  H       22.994     -19.190      47.335
  H       20.155     -20.206      45.769
  H       20.952     -21.783      45.981
  H       20.211     -21.364      44.420
  H       20.218     -13.527      38.110
  H       20.137     -15.090      38.886
  H       21.231     -14.835      37.547

 3  4  5  6  7  8  9  10  11  12  23  26  30  31  33  0
 6-311+G(2d,p)
 ****
 35  36  37  38 0
 6-311+G(2d,p)
 ****
 1  2  13  14  15  16  17  18  19  20  21  22  24  25  27  28  29 0
 3-21G
 ****
 32  34  39  40  41  42  43  44  45  46  47  48  49 0
 3-21G
 ****


