%nproc=1
%NoSave
%Mem=1900MB
#P OB98/GEN NMR

erre ene a

0 1
  C      107.373     -11.469     120.875
  O      108.586     -10.920     120.389
  P      109.872     -11.033     121.347
  C      110.857     -13.254     120.391
  O      110.977     -11.847     120.522
  C      110.979     -13.646     118.918
  O      109.872     -13.113     118.164
  C      112.242     -13.135     118.237
  O      113.339     -13.980     118.527
  C      111.824     -13.148     116.771
  O      111.935     -14.473     116.218
  C      110.355     -12.707     116.854
  N      108.983      -9.128     113.562
  C      109.241     -10.470     113.358
  N      109.064     -10.931     112.101
  N      109.634     -11.285     114.300
  C      109.781     -10.682     115.503
  C      109.571      -9.362     115.827
  C      109.087      -8.484     114.787
  O      108.750      -7.313     114.937
  N      109.848      -9.118     117.146
  C      110.194     -10.295     117.624
  N      110.149     -11.282     116.675
  O      109.393     -12.056     122.476
  O      110.358      -9.736     121.914
  H      112.872     -14.738     116.206
  H      109.107     -11.578     123.278
  H      108.666      -8.553     112.802
  H      110.462     -10.489     118.652
  H      109.730     -13.215     116.110
  H      112.453     -12.499     116.157
  H      108.788     -10.358     111.321
  H      112.454     -12.105     118.550
  H      109.253     -11.912     111.932
  H      110.927     -14.740     118.857
  H      109.881     -13.569     120.768
  H      111.639     -13.737     120.986
  P      114.776     -13.292     118.715
  C      114.612     -13.182     121.302
  O      115.302     -13.684     120.173
  O      114.423     -11.734     118.837
  O      115.733     -13.545     117.599
  H      115.122     -11.207     118.408
  H      114.717     -13.896     122.122
  H      113.549     -13.032     121.094
  H      115.058     -12.231     121.601
  H      106.601     -11.329     120.147
  H      107.098     -10.978     121.785
  H      107.504     -12.515     121.060

 3  4  5  6  7  8  9  10  11  12  23  26  30  31 0
 6-311+G(2d,p)
 ****
 33  35  36  37  38 0
 6-311+G(2d,p)
 ****
 1  2  13  14  15  16  17  18  19  20  21  22  24  25 0
 3-21G
 ****
 27  28  29  32  34  39  40  41  42  43  44  45  46  47  48  49 0
 3-21G
 ****


