%nproc=1
%NoSave
%Mem=1900MB
#P OB98/GEN NMR

erre ene a

0 1
  C        3.642     -47.060      80.365
  O        4.802     -47.681      79.805
  P        5.876     -46.711      79.114
  C        6.673     -45.447      81.239
  O        7.002     -46.359      80.199
  C        7.915     -44.664      81.664
  O        7.579     -43.557      82.529
  C        8.915     -45.500      82.454
  O        9.631     -46.377      81.602
  C        9.761     -44.404      83.093
  O       10.714     -43.888      82.148
  C        8.708     -43.327      83.405
  N        8.929     -40.915      87.911
  C        9.494     -40.645      86.714
  N        9.388     -41.339      85.561
  C        8.593     -42.409      85.722
  C        7.945     -42.809      86.879
  C        8.140     -42.010      88.018
  N        7.577     -42.293      89.242
  N        7.218     -43.961      86.658
  C        7.443     -44.263      85.395
  N        8.258     -43.349      84.785
  O        5.074     -45.338      78.938
  O        6.391     -47.221      77.808
  H       11.365     -44.598      81.974
  H        4.868     -45.191      77.996
  H       10.115     -39.755      86.676
  H        7.041     -45.129      84.882
  H        9.078     -42.316      83.203
  H       10.320     -44.749      83.967
  H        8.397     -46.075      83.231
  H        8.394     -44.267      80.760
  H        6.262     -45.984      82.097
  H        7.831     -41.714      90.026
  H        7.059     -43.152      89.354
  H        5.885     -44.775      80.881
  P       10.318     -47.666      82.264
  C        8.131     -48.975      81.944
  O        9.508     -48.898      81.623
  O        9.745     -47.607      83.753
  O       11.801     -47.726      82.134
  H        8.787     -47.426      83.766
  H        7.699     -49.831      81.420
  H        7.617     -48.065      81.624
  H        8.005     -49.119      83.020
  H        3.008     -47.808      80.793
  H        3.110     -46.539      79.597
  H        3.940     -46.368      81.125

 3  4  5  6  7  8  9  10  11  12  22  25  29  30  31  32 0
 6-311+G(2d,p)
 ****
 33  36  37 0
 6-311+G(2d,p)
 ****
 1  2  13  14  15  16  17  18  19  20  21  23  24  26 0
 3-21G
 ****
 27  28  34  35  38  39  40  41  42  43  44  45  46  47  48 0
 3-21G
 ****


