%nproc=1
%NoSave
%Mem=1900MB
#P OB98/GEN NMR

erre ene a

0 1
  C     -103.951    -346.756      89.379
  O     -103.805    -347.458      90.592
  H     -102.997    -346.789      88.843
  H     -104.200    -345.709      89.569
  H     -104.720    -347.218      88.756
  P     -105.045    -347.537      91.609
  C     -105.798    -349.839      90.754
  O     -105.286    -349.110      91.864
  C     -105.426    -351.318      90.856
  O     -104.097    -351.524      90.308
  C     -105.423    -351.865      92.292
  O     -106.126    -353.106      92.344
  C     -103.949    -352.094      92.585
  O     -103.728    -353.071      93.597
  C     -103.437    -352.455      91.188
  N     -101.981    -352.369      91.100
  C     -101.277    -353.553      91.329
  O     -101.880    -354.594      91.582
  N      -99.907    -353.516      91.321
  C      -99.292    -352.391      91.146
  N      -97.931    -352.422      91.181
  C      -99.996    -351.109      90.931
  C     -101.329    -351.169      90.915
  O     -106.254    -346.773      91.179
  O     -104.456    -347.041      93.012
  H     -102.763    -353.114      93.786
  H     -105.197    -346.726      93.576
  H      -99.438    -350.196      90.793
  H     -101.934    -350.282      90.759
  H     -103.743    -353.468      90.906
  H     -103.489    -351.153      92.918
  H     -105.871    -351.174      93.008
  H     -106.114    -351.890      90.218
  H      -97.489    -353.321      91.337
  H     -105.389    -349.403      89.833
  H      -97.347    -351.600      91.080
  H     -106.885    -349.743      90.749
  P     -106.515    -353.644      93.807
  C     -109.099    -353.493      93.659
  O     -107.957    -354.333      93.717
  O     -106.780    -352.295      94.636
  O     -105.444    -354.475      94.438
  H     -106.070    -352.164      95.290
  H     -109.982    -354.095      93.602
  H     -109.038    -352.867      92.793
  H     -109.139    -352.884      94.538

 6  7  8  9  10  11  12  13  14  15  16  26  30  31  32  33  35 0
 6-311+G(2d,p)
 ****
 37  38 0
 6-311+G(2d,p)
 ****
 1  2  3  4  5  17  18  19  20  21  22  23  24  25 0
 3-21G
 ****
 27  28  29  34  36  39  40  41  42  43  44  45  46 0
 3-21G
 ****


