%nproc=1
%NoSave
%Mem=1900MB
#P OB98/GEN NMR

erre ene a

0 1
  C      -67.536    -262.271      59.622
  O      -67.911    -261.439      58.537
  P      -69.365    -260.758      58.496
  C      -69.992    -262.349      56.577
  O      -69.935    -260.998      57.014
  C      -70.849    -262.478      55.315
  O      -70.754    -263.834      54.818
  C      -72.320    -262.175      55.552
  O      -72.854    -261.516      54.397
  C      -72.975    -263.545      55.657
  O      -74.361    -263.494      55.292
  C      -72.089    -264.375      54.726
  N      -72.391    -269.211      53.030
  C      -72.431    -268.029      52.376
  N      -72.370    -266.781      52.893
  C      -72.200    -266.831      54.224
  C      -72.140    -267.963      55.027
  C      -72.246    -269.202      54.377
  N      -72.194    -270.410      55.038
  N      -71.991    -267.614      56.355
  C      -71.943    -266.299      56.355
  N      -72.052    -265.780      55.087
  O      -69.415    -259.345      58.958
  O      -70.281    -261.712      59.396
  H      -74.401    -263.320      54.325
  H      -70.916    -261.179      59.916
  H      -72.524    -268.094      51.296
  H      -71.842    -265.680      57.230
  H      -72.414    -264.294      53.676
  H      -72.912    -263.898      56.696
  H      -72.497    -261.561      56.443
  H      -70.433    -261.814      54.540
  H      -70.432    -262.955      57.373
  H      -72.156    -271.247      54.479
  H      -71.912    -270.406      56.013
  H      -68.973    -262.715      56.387
  P      -73.358    -260.001      54.618
  C      -75.657    -261.177      54.254
  O      -74.877    -260.004      54.117
  O      -72.435    -259.006      53.991
  O      -73.437    -259.930      56.219
  H      -73.565    -260.823      56.611
  H      -76.648    -260.991      53.821
  H      -75.777    -261.430      55.307
  H      -75.186    -262.010      53.720
  H      -66.539    -262.628      59.470
  H      -68.207    -263.102      59.683
  H      -67.579    -261.711      60.533

 3  4  5  6  7  8  9  10  11  12  22  25  29  30  31  32 0
 6-311+G(2d,p)
 ****
 33  36  37 0
 6-311+G(2d,p)
 ****
 1  2  13  14  15  16  17  18  19  20  21  23  24  26 0
 3-21G
 ****
 27  28  34  35  38  39  40  41  42  43  44  45  46  47  48 0
 3-21G
 ****


