%nproc=1
%NoSave
%Mem=1900MB
#P OB98/GEN NMR

erre ene a

0 1
  C     -677.044      13.510     165.782
  O     -677.974      14.497     166.221
  P     -677.721      15.182     167.648
  C     -677.578      17.675     166.916
  O     -678.306      16.686     167.617
  C     -678.225      19.060     167.073
  O     -679.410      19.171     166.237
  C     -678.646      19.389     168.509
  O     -678.546      20.799     168.700
  C     -680.112      18.992     168.524
  O     -680.812      19.599     169.608
  C     -680.524      19.462     167.122
  N     -685.537      19.930     166.686
  C     -684.614      20.782     167.254
  N     -685.084      21.949     167.749
  N     -683.337      20.518     167.330
  C     -683.002      19.333     166.758
  C     -683.823      18.394     166.176
  C     -685.243      18.695     166.116
  O     -686.110      17.970     165.640
  N     -683.109      17.301     165.735
  C     -681.864      17.576     166.065
  N     -681.732      18.803     166.653
  O     -676.137      15.411     167.660
  O     -678.160      14.351     168.808
  H     -680.343      19.345     170.439
  H     -675.714      14.790     168.278
  H     -686.517      20.177     166.664
  H     -681.017      16.920     165.908
  H     -680.716      20.547     167.085
  H     -680.212      17.903     168.611
  H     -686.052      22.239     167.672
  H     -678.063      18.873     169.288
  H     -684.420      22.611     168.121
  H     -677.509      19.821     166.717
  H     -677.526      17.423     165.850
  H     -676.540      17.678     167.278
  P     -677.126      21.370     169.189
  C     -676.870      23.034     167.202
  O     -677.011      22.856     168.595
  O     -676.075      20.539     168.309
  O     -676.861      21.239     170.657
  H     -675.204      20.499     168.769
  H     -677.820      23.350     166.786
  H     -676.542      22.109     166.701
  H     -676.127      23.807     167.017
  H     -677.339      13.144     164.821
  H     -677.026      12.700     166.481
  H     -676.068      13.944     165.714

 3  4  5  6  7  8  9  10  11  12  23  26  30  31 0
 6-311+G(2d,p)
 ****
 33  35  36  37  38 0
 6-311+G(2d,p)
 ****
 1  2  13  14  15  16  17  18  19  20  21  22  24  25 0
 3-21G
 ****
 27  28  29  32  34  39  40  41  42  43  44  45  46  47  48  49 0
 3-21G
 ****


