%nproc=1
%NoSave
%Mem=1900MB
#P OB98/GEN NMR

erre ene a

0 1
  C       12.548     270.342     396.874
  O       12.370     270.128     395.490
  H       13.591     270.140     397.129
  H       11.912     269.663     397.446
  H       12.318     271.379     397.143
  P       10.972     270.530     394.820
  C       10.105     268.113     395.088
  O       10.355     269.188     394.197
  C        9.452     266.935     394.351
  O        8.202     267.399     393.755
  C       10.309     266.351     393.211
  O        9.975     264.957     393.112
  C        9.777     267.135     392.023
  O       10.201     266.606     390.792
  C        8.278     267.087     392.346
  N        7.443     268.001     391.572
  C        6.808     267.494     390.444
  O        6.894     266.335     390.052
  N        6.042     268.391     389.741
  C        5.844     269.702     390.059
  O        5.124     270.449     389.411
  C        6.546     270.179     391.259
  C        7.298     269.320     391.955
  O       11.009     271.698     393.893
  O       10.017     270.807     396.077
  H        9.929     271.769     396.216
  H        9.791     267.121     390.067
  H        5.569     268.042     388.924
  H        6.424     271.217     391.536
  H        7.820     269.642     392.849
  H        7.899     266.068     392.224
  H       10.152     268.159     392.054
  H       11.381     266.459     393.383
  H        9.187     266.164     395.084
  H        9.434     268.471     395.880
  H       11.047     267.793     395.543
  P       10.775     263.801     393.885
  C       11.721     263.072     391.584
  O       11.149     262.657     392.821
  O       10.074     263.288     395.099
  O       12.191     264.446     394.261
  H       12.553     263.999     395.052
  H       11.918     262.214     390.977
  H       12.636     263.594     391.771
  H       11.038     263.720     391.075

 6  7  8  9  10  11  12  13  14  15  16  27  31  32  33  34  35 0
 6-311+G(2d,p)
 ****
 36  37 0
 6-311+G(2d,p)
 ****
 1  2  3  4  5  17  18  19  20  21  22  23  24  25 0
 3-21G
 ****
 26  28  29  30  38  39  40  41  42  43  44  45 0
 3-21G
 ****


