%nproc=1
%NoSave
%Mem=1900MB
#P OB98/GEN NMR

erre ene a

0 1
  C      237.596      14.381      61.995
  O      236.352      14.383      62.667
  H      238.068      13.405      62.134
  H      238.248      15.153      62.416
  H      237.450      14.558      60.926
  P      235.411      15.662      62.454
  C      235.640      18.234      62.948
  O      236.150      16.919      63.133
  C      236.042      19.118      64.125
  O      235.405      18.686      65.345
  C      237.524      19.072      64.454
  O      238.318      19.732      63.491
  C      237.526      19.745      65.820
  O      237.437      21.171      65.695
  C      236.229      19.168      66.443
  N      236.497      18.120      67.418
  C      236.623      18.542      68.747
  O      236.495      19.735      69.034
  N      236.917      17.609      69.711
  C      237.050      16.360      69.383
  N      237.350      15.489      70.383
  C      236.898      15.869      67.998
  C      236.632      16.792      67.077
  O      234.199      15.380      63.458
  O      234.997      15.920      61.040
  H      238.298      21.470      65.336
  H      234.482      15.198      64.369
  H      237.008      14.818      67.771
  H      236.507      16.518      66.038
  H      235.657      19.962      66.942
  H      238.437      19.530      66.383
  H      237.850      18.035      64.591
  H      235.707      20.144      63.909
  H      237.466      15.864      71.316
  H      234.552      18.217      62.828
  H      237.510      14.499      70.241
  H      236.068      18.626      62.019
  P      239.565      18.983      62.814
  C      241.501      17.572      63.765
  O      240.585      18.638      64.007
  O      240.185      19.700      61.658
  O      238.975      17.540      62.445
  H      238.646      17.028      63.204
  H      242.125      17.436      64.624
  H      242.109      17.810      62.917
  H      240.957      16.671      63.573

 6  7  8  9  10  11  12  13  14  15  16  26  30  31  32  33  35 0
 6-311+G(2d,p)
 ****
 37  38 0
 6-311+G(2d,p)
 ****
 1  2  3  4  5  17  18  19  20  21  22  23  24  25 0
 3-21G
 ****
 27  28  29  34  36  39  40  41  42  43  44  45  46 0
 3-21G
 ****


