%nproc=1
%NoSave
%Mem=1900MB
#P OB98/GEN NMR

erre ene a

0 1
  C       32.111     241.140     275.797
  O       33.104     241.018     274.800
  H       31.220     240.597     275.473
  H       31.846     242.191     275.937
  H       32.454     240.714     276.743
  P       34.577     241.570     275.104
  C       36.677     240.679     276.312
  O       35.315     240.454     275.987
  C       37.176     239.636     277.318
  O       36.334     239.698     278.510
  C       37.121     238.183     276.803
  O       38.182     237.467     277.448
  C       35.762     237.747     277.321
  O       35.564     236.360     277.222
  C       35.821     238.365     278.725
  N       34.553     238.412     279.443
  C       34.568     238.113     280.802
  O       35.576     237.816     281.442
  N       33.352     238.159     281.433
  C       32.159     238.483     280.858
  O       31.108     238.538     281.483
  C       32.206     238.781     279.419
  C       33.382     238.739     278.788
  O       34.651     242.957     275.649
  O       35.322     241.452     273.690
  H       35.363     242.331     273.269
  H       34.651     236.146     277.511
  H       33.345     237.950     282.419
  H       31.276     239.030     278.928
  H       33.449     238.964     277.729
  H       36.558     237.834     279.336
  H       34.969     238.206     276.726
  H       37.237     238.108     275.718
  H       38.192     239.904     277.633
  H       36.763     241.681     276.748
  H       37.277     240.637     275.397
  P       39.504     236.967     276.686
  C       41.816     237.941     276.043
  O       40.571     238.167     276.699
  O       39.243     236.410     275.325
  O       40.154     235.864     277.646
  H       40.682     235.238     277.114
  H       42.427     238.815     276.127
  H       41.641     237.727     275.009
  H       42.314     237.112     276.500

 6  7  8  9  10  11  12  13  14  15  16  27  31  32  33  34  35 0
 6-311+G(2d,p)
 ****
 36  37 0
 6-311+G(2d,p)
 ****
 1  2  3  4  5  17  18  19  20  21  22  23  24  25 0
 3-21G
 ****
 26  28  29  30  38  39  40  41  42  43  44  45 0
 3-21G
 ****


