%nproc=1
%NoSave
%Mem=1900MB
#P OB98/GEN NMR

erre ene a

0 1
  C       28.319     190.707    -253.498
  O       28.472     189.364    -253.083
  H       27.650     191.220    -252.797
  H       27.876     190.744    -254.496
  H       29.286     191.217    -253.499
  P       29.453     188.445    -253.953
  C       27.700     188.197    -255.860
  O       29.002     188.631    -255.484
  C       27.763     187.482    -257.208
  O       26.453     186.961    -257.539
  C       28.147     188.388    -258.380
  O       29.546     188.616    -258.432
  C       27.615     187.587    -259.559
  O       28.538     186.570    -259.965
  C       26.348     186.938    -258.978
  N       23.283     187.866    -262.951
  C       24.380     187.085    -262.819
  N       25.133     186.881    -261.715
  C       24.641     187.573    -260.670
  C       23.538     188.410    -260.656
  C       22.837     188.550    -261.871
  N       21.742     189.370    -262.016
  N       23.378     188.977    -259.407
  C       24.359     188.488    -258.681
  N       25.140     187.626    -259.399
  O       28.974     186.961    -253.592
  O       30.911     188.643    -253.691
  H       28.885     186.164    -259.144
  H       29.527     186.603    -252.873
  H       24.699     186.566    -263.720
  H       24.548     188.727    -257.638
  H       26.243     185.891    -259.279
  H       27.435     188.226    -260.426
  H       27.602     189.338    -258.318
  H       28.454     186.638    -257.124
  H       27.037     189.069    -255.945
  H       27.313     187.526    -255.088
  H       21.303     189.437    -262.920
  H       21.466     189.964    -261.245
  P       30.086     189.864    -259.282
  C       31.908     188.429    -260.462
  O       30.785     189.282    -260.607
  O       31.314     190.397    -258.408
  O       29.069     190.931    -259.537
  H       31.040     191.182    -257.887
  H       32.255     188.129    -261.429
  H       31.628     187.563    -259.899
  H       32.689     188.951    -259.949

 6  7  8  9  10  11  12  13  14  15  25  28  32  33  34  35 0
 6-311+G(2d,p)
 ****
 36  37  40 0
 6-311+G(2d,p)
 ****
 1  2  3  4  5  16  17  18  19  20  21  22  23  24 0
 3-21G
 ****
 26  27  29  30  31  38  39 41  42  43  44  45  46  47  48 0
 3-21G
 ****


