%nproc=1
%NoSave
%Mem=1900MB
#P OB98/GEN NMR

erre ene a

0 1
  C       53.741     -62.038      65.550
  O       53.575     -61.282      64.367
  H       54.419     -61.523      66.235
  H       52.768     -62.151      66.034
  H       54.133     -63.033      65.312
  P       54.894     -61.030      63.486
  C       55.499     -58.896      64.836
  O       55.899     -60.193      64.418
  C       56.569     -58.281      65.735
  O       56.827     -59.141      66.864
  C       57.923     -58.072      65.062
  O       57.939     -56.896      64.265
  C       58.824     -57.929      66.280
  O       58.705     -56.598      66.820
  C       58.211     -58.949      67.253
  N       62.576     -61.399      68.323
  C       62.186     -60.121      68.522
  N       61.001     -59.546      68.229
  C       60.161     -60.447      67.691
  C       60.404     -61.788      67.447
  C       61.682     -62.268      67.783
  N       62.092     -63.564      67.510
  N       59.302     -62.390      66.869
  C       58.418     -61.421      66.749
  N       58.887     -60.232      67.238
  O       54.396     -59.958      62.403
  O       55.469     -62.246      62.840
  H       59.057     -56.633      67.730
  H       54.161     -60.422      61.577
  H       62.928     -59.468      68.973
  H       57.434     -61.534      66.314
  H       58.209     -58.583      68.287
  H       59.883     -58.092      66.054
  H       58.231     -58.955      64.491
  H       56.177     -57.332      66.125
  H       54.557     -58.965      65.392
  H       63.092     -63.648      67.354
  H       61.486     -64.070      66.875
  H       55.345     -58.274      63.950
  P       58.808     -56.926      62.914
  C       60.879     -55.876      64.056
  O       60.349     -57.000      63.365
  O       58.646     -55.433      62.357
  O       58.380     -57.931      61.901
  H       58.295     -55.458      61.447
  H       61.906     -56.056      64.296
  H       60.325     -55.718      64.958
  H       60.805     -55.008      63.435

 6  7  8  9  10  11  12  13  14  15  25  28  32  33  34  35 0
 6-311+G(2d,p)
 ****
 36  39  40 0
 6-311+G(2d,p)
 ****
 1  2  3  4  5  16  17  18  19  20  21  22  23  24 0
 3-21G
 ****
 26  27  29  30  31  37  38  41  42  43  44  45  46  47  48 0
 3-21G
 ****


