%nproc=1
%NoSave
%Mem=1900MB
#P OB98/GEN NMR

erre ene a

0 1
  C       77.622      80.842    -132.159
  O       76.389      81.413    -131.780
  H       77.451      79.800    -132.441
  H       78.315      80.870    -131.314
  H       78.062      81.368    -133.010
  P       76.257      83.007    -131.748
  C       76.242      83.346    -129.190
  O       75.490      83.407    -130.395
  C       75.423      83.806    -127.983
  O       76.217      83.716    -126.779
  C       74.991      85.267    -128.096
  O       73.811      85.494    -128.846
  C       74.790      85.647    -126.632
  O       73.473      85.287    -126.185
  C       75.849      84.806    -125.916
  N       78.293      87.494    -122.324
  C       77.032      86.933    -122.282
  N       76.310      87.169    -121.165
  N       76.525      86.225    -123.257
  C       77.323      86.154    -124.348
  C       78.585      86.680    -124.512
  C       79.159      87.416    -123.404
  O       80.270      87.939    -123.393
  N       79.090      86.400    -125.759
  C       78.106      85.773    -126.372
  N       77.023      85.577    -125.548
  O       75.157      83.317    -132.873
  O       77.525      83.761    -132.012
  H       73.448      85.358    -125.214
  H       75.288      84.214    -133.227
  H       78.643      88.005    -121.533
  H       78.136      85.418    -127.396
  H       75.453      84.363    -124.994
  H       74.892      86.726    -126.477
  H       76.611      87.802    -120.441
  H       75.806      85.876    -128.500
  H       75.302      87.006    -121.204
  H       74.563      83.138    -127.854
  H       77.106      84.000    -129.326
  H       76.622      82.333    -129.032
  P       73.776      86.646    -129.956
  C       72.450      88.063    -128.221
  O       72.582      87.640    -129.560
  O       73.223      85.879    -131.246
  O       75.086      87.304    -130.221
  H       73.963      85.601    -131.816
  H       71.608      88.717    -128.135
  H       73.337      88.582    -127.922
  H       72.305      87.211    -127.590

 6  7  8  9  10  11  12  13  14  15  26  29  33  34 0
 6-311+G(2d,p)
 ****
 36  38  39  40  41 0
 6-311+G(2d,p)
 ****
 1  2  3  4  5  16  17  18  19  20  21  22  23  24  25 0
 3-21G
 ****
 27  28  30  31  32  35  37  42  43  44  45  46  47 0
 3-21G
 ****
 48  49 0
 3-21G
 ****


