%nproc=1
%NoSave
%Mem=1900MB
#P OB98/GEN NMR

erre ene a

0 1
  C      135.492     182.350    -327.116
  O      134.830     183.588    -327.308
  H      136.224     182.465    -326.313
  H      136.019     182.053    -328.028
  H      134.776     181.574    -326.833
  P      133.705     183.681    -328.443
  C      131.933     185.268    -327.436
  O      133.054     185.140    -328.301
  C      131.525     186.732    -327.320
  O      132.492     187.464    -326.535
  C      131.427     187.456    -328.664
  O      130.188     187.173    -329.291
  C      131.551     188.907    -328.206
  O      130.303     189.341    -327.638
  C      132.626     188.795    -327.108
  N      136.174     192.109    -328.583
  C      134.855     192.318    -328.231
  N      134.405     193.591    -328.323
  N      134.044     191.369    -327.838
  C      134.614     190.140    -327.864
  C      135.898     189.802    -328.211
  C      136.804     190.870    -328.585
  O      137.984     190.732    -328.893
  N      136.097     188.443    -328.178
  C      134.935     187.962    -327.771
  N      133.995     188.955    -327.582
  O      132.696     182.569    -328.472
  O      134.536     183.775    -329.807
  H      130.515     190.108    -327.066
  H      134.678     182.891    -330.197
  H      136.738     192.884    -328.892
  H      134.721     186.916    -327.597
  H      132.473     189.516    -326.301
  H      131.800     189.592    -329.010
  H      134.886     194.291    -328.876
  H      132.289     187.229    -329.314
  H      133.429     193.760    -328.111
  H      130.568     186.777    -326.779
  H      132.226     184.875    -326.456
  H      131.093     184.681    -327.812
  P      130.040     187.211    -330.890
  C      128.565     185.109    -331.184
  O      128.620     186.536    -331.188
  O      131.190     186.614    -331.641
  O      129.774     188.748    -331.232
  H      130.602     189.276    -331.379
  H      127.566     184.790    -331.395
  H      128.860     184.743    -330.223
  H      129.228     184.724    -331.931

 6  7  8  9  10  11  12  13  14  15  26  29  33  34 0
 6-311+G(2d,p)
 ****
 36  38  39  40  41 0
 6-311+G(2d,p)
 ****
 1  2  3  4  5  16  17  18  19  20  21  22  23  24  25 0
 3-21G
 ****
 27  28  30  31  32  35  37  42  43  44  45  46  47 0
 3-21G
 ****
 48  49 0
 3-21G
 ****


