%nproc=1
%NoSave
%Mem=1900MB
#P OB98/GEN NMR

erre ene a

0 1
  C     -965.626      22.651      22.768
  O     -964.779      23.747      23.108
  P     -965.405      25.217      23.081
  C     -963.226      26.350      22.241
  O     -964.214      26.289      23.275
  C     -961.902      26.906      22.784
  O     -962.134      28.251      23.300
  C     -961.302      26.109      23.949
  O     -960.414      25.039      23.649
  C     -960.462      27.182      24.647
  O     -959.182      27.311      23.977
  C     -961.269      28.462      24.442
  N     -961.175      30.734      29.033
  C     -960.212      30.535      28.098
  N     -960.321      29.925      26.901
  C     -961.578      29.493      26.699
  C     -962.661      29.623      27.555
  C     -962.423      30.265      28.780
  N     -963.398      30.462      29.737
  N     -963.785      29.060      27.007
  C     -963.389      28.569      25.840
  N     -962.060      28.825      25.608
  O     -966.606      25.449      23.930
  O     -965.768      25.416      21.519
  H     -958.653      27.926      24.516
  H     -966.599      25.919      21.457
  H     -959.231      30.921      28.345
  H     -964.020      28.038      25.148
  H     -960.638      29.331      24.204
  H     -960.243      26.942      25.690
  H     -962.083      25.758      24.638
  H     -961.177      26.981      21.970
  H     -963.591      26.993      21.430
  H     -963.131      30.897      30.598
  H     -964.321      30.081      29.583
  H     -963.120      25.345      21.826
  P     -960.502      23.643      24.428
  C     -957.910      23.208      24.411
  O     -959.193      22.817      23.980
  O     -961.786      22.906      24.271
  O     -960.152      24.063      25.936
  H     -959.229      24.352      26.069
  H     -957.205      22.413      24.181
  H     -957.911      23.388      25.488
  H     -957.607      24.115      23.882
  H     -965.071      21.738      22.830
  H     -965.991      22.779      21.770
  H     -966.451      22.614      23.448

 3  4  5  6  7  8  9  10  11  12  22  25  29  30  31  32 0
 6-311+G(2d,p)
 ****
 33  36  37 0
 6-311+G(2d,p)
 ****
 1  2  13  14  15  16  17  18  19  20  21  23  24  26 0
 3-21G
 ****
 27  28  34  35  38  39  40  41  42  43  44  45  46  47  48 0
 3-21G
 ****


