%nproc=1
%NoSave
%Mem=1900MB
#P OB98/GEN NMR

erre ene a

0 1
  C      104.578      34.758    -169.547
  O      104.347      33.976    -168.393
  H      105.003      35.723    -169.263
  H      105.292      34.234    -170.189
  H      103.649      34.908    -170.104
  P      103.194      34.482    -167.398
  C      103.143      36.024    -165.306
  O      103.914      35.486    -166.371
  C      103.485      37.498    -165.093
  O      104.830      37.595    -164.555
  C      103.438      38.328    -166.380
  O      102.893      39.616    -166.081
  C      104.901      38.464    -166.767
  O      105.143      39.614    -167.567
  C      105.574      38.496    -165.398
  N      110.281      40.018    -166.655
  C      109.106      40.679    -166.591
  N      107.894      40.199    -166.240
  C      107.983      38.905    -165.886
  C      109.109      38.100    -165.901
  C      110.306      38.706    -166.320
  N      111.500      38.032    -166.423
  N      108.790      36.815    -165.503
  C      107.496      36.848    -165.253
  N      106.965      38.088    -165.473
  O      102.912      33.175    -166.511
  O      101.955      34.997    -168.047
  H      106.023      39.517    -167.987
  H      102.338      32.564    -167.009
  H      109.141      41.730    -166.864
  H      106.901      36.008    -164.922
  H      105.553      39.495    -164.944
  H      105.215      37.580    -167.335
  H      102.846      37.858    -167.166
  H      102.810      37.909    -164.332
  H      103.361      35.463    -164.391
  H      112.296      38.530    -166.786
  H      111.524      37.041    -166.236
  H      102.079      35.921    -165.544
  P      102.109      40.362    -167.266
  C      102.699      42.038    -169.152
  O      103.088      41.454    -167.917
  O      101.018      41.241    -166.493
  O      101.466      39.426    -168.238
  H      100.137      41.100    -166.886
  H      103.442      42.742    -169.463
  H      101.762      42.539    -169.030
  H      102.600      41.273    -169.893

 6  7  8  9  10  11  12  13  14  15  25  28  32  33  34  35 0
 6-311+G(2d,p)
 ****
 36  39  40 0
 6-311+G(2d,p)
 ****
 1  2  3  4  5  16  17  18  19  20  21  22  23  24 0
 3-21G
 ****
 26  27  29  30  31  37  38  41  42  43  44  45  46  47 0
 3-21G
 ****
 48 0
 3-21G
 ****


