%nproc=1
%NoSave
%Mem=1900MB
#P OB98/GEN NMR

erre ene a

0 1
  C       -8.013     -19.913     166.679
  O       -8.795     -21.052     166.309
  P       -8.838     -22.268     167.353
  C      -10.703     -21.409     168.945
  O      -10.320     -22.356     167.956
  C      -11.430     -22.110     170.092
  O      -11.672     -21.214     171.198
  C      -12.803     -22.643     169.701
  O      -12.688     -23.818     168.915
  C      -13.428     -22.857     171.074
  O      -12.955     -24.083     171.658
  C      -12.876     -21.660     171.867
  N      -17.341     -20.115     173.832
  C      -16.673     -21.287     173.917
  N      -15.490     -21.620     173.362
  C      -14.984     -20.590     172.666
  C      -15.546     -19.336     172.493
  C      -16.788     -19.112     173.112
  N      -17.474     -17.923     173.012
  N      -14.734     -18.541     171.710
  C      -13.711     -19.311     171.397
  N      -13.811     -20.554     171.961
  O       -7.960     -21.732     168.579
  O       -8.298     -23.548     166.806
  H      -13.212     -24.810     171.056
  H       -7.108     -22.206     168.611
  H      -17.155     -22.061     174.509
  H      -12.880     -19.015     170.769
  H      -12.599     -21.934     172.891
  H      -14.520     -22.908     171.045
  H      -13.362     -21.879     169.148
  H      -10.797     -22.936     170.443
  H      -11.351     -20.645     168.507
  H      -18.394     -17.871     173.420
  H      -17.113     -17.199     172.407
  H       -9.806     -20.892     169.302
  P      -13.627     -23.945     167.621
  C      -12.445     -22.272     166.071
  O      -12.629     -23.637     166.398
  O      -14.489     -22.604     167.715
  O      -14.398     -25.216     167.525
  H      -13.934     -21.830     167.918
  H      -11.723     -22.205     165.252
  H      -12.057     -21.725     166.934
  H      -13.391     -21.835     165.744
  H       -8.066     -19.177     165.904
  H       -6.995     -20.210     166.820
  H       -8.393     -19.500     167.590

 3  4  5  6  7  8  9  10  11  12  22  25  29  30  31  32 0
 6-311+G(2d,p)
 ****
 33  36  37 0
 6-311+G(2d,p)
 ****
 1  2  13  14  15  16  17  18  19  20  21  23  24  26 0
 3-21G
 ****
 27  28  34  35  38  39  40  41  42  43  44  45  46  47  48 0
 3-21G
 ****


