%nproc=1
%NoSave
%Mem=1900MB
#P OB98/GEN NMR

erre ene a

0 1
  C      246.408    -802.862     613.552
  O      246.335    -801.488     613.208
  H      245.629    -803.398     613.001
  H      246.227    -802.990     614.617
  H      247.387    -803.270     613.276
  P      247.388    -800.521     613.940
  C      247.639    -799.584     616.357
  O      246.818    -800.288     615.426
  C      247.056    -799.683     617.757
  O      246.947    -801.071     618.172
  C      247.883    -798.973     618.825
  O      247.591    -797.591     618.861
  C      247.422    -799.703     620.084
  O      246.156    -799.196     620.569
  C      247.279    -801.142     619.587
  N      249.671    -804.230     622.789
  C      248.443    -803.614     622.901
  N      247.766    -803.809     624.047
  N      247.915    -802.867     621.962
  C      248.716    -802.732     620.880
  C      249.942    -803.312     620.642
  C      250.507    -804.164     621.673
  O      251.561    -804.782     621.606
  N      250.437    -802.946     619.408
  C      249.520    -802.138     618.914
  N      248.463    -801.957     619.779
  O      247.142    -799.098     613.231
  O      248.823    -800.939     613.854
  H      246.288    -798.309     620.941
  H      247.981    -798.598     613.220
  H      250.015    -804.805     623.541
  H      249.579    -801.654     617.957
  H      246.447    -801.676     620.085
  H      248.136    -799.588     620.911
  H      248.252    -804.080     624.909
  H      248.957    -799.151     618.672
  H      246.876    -803.339     624.156
  H      246.037    -799.279     617.728
  H      247.694    -798.532     616.054
  H      248.655    -800.022     616.329
  P      248.625    -796.628     619.623
  C      249.347    -796.323     622.118
  O      248.404    -796.890     621.196
  O      248.010    -795.166     619.397
  O      250.045    -796.730     619.142
  H      248.689    -794.485     619.581
  H      249.068    -796.582     623.118
  H      249.351    -795.258     622.014
  H      250.324    -796.706     621.909

 6  7  8  9  10  11  12  13  14  15  26  29  33  34 0
 6-311+G(2d,p)
 ****
 36  38  39  40  41 0
 6-311+G(2d,p)
 ****
 1  2  3  4  5  16  17  18  19  20  21  22  23  24  25 0
 3-21G
 ****
 27  28  30  31  32  35  37  42  43  44  45  46  47 0
 3-21G
 ****
 48  49 0
 3-21G
 ****


