%nproc=1
%NoSave
%Mem=1900MB
#P OB98/GEN NMR

erre ene a

0 1
  C      -64.257    -453.993    -325.443
  O      -63.504    -455.162    -325.191
  H      -64.719    -454.076    -326.428
  H      -63.590    -453.126    -325.443
  H      -65.040    -453.861    -324.693
  P      -63.066    -455.440    -323.675
  C      -60.566    -455.165    -324.310
  O      -61.558    -455.993    -323.725
  C      -59.167    -455.670    -323.947
  O      -59.010    -455.594    -322.498
  C      -58.894    -457.123    -324.374
  O      -57.524    -457.232    -324.783
  C      -59.063    -457.889    -323.072
  O      -58.367    -459.131    -323.082
  C      -58.515    -456.878    -322.073
  N      -57.087    -459.353    -317.949
  C      -56.385    -459.043    -319.095
  N      -55.124    -459.512    -319.191
  N      -56.881    -458.331    -320.073
  C      -58.148    -457.907    -319.842
  C      -58.949    -458.147    -318.754
  C      -58.394    -458.953    -317.683
  O      -58.971    -459.281    -316.653
  N      -60.191    -457.593    -318.925
  C      -60.146    -457.036    -320.124
  N      -58.926    -457.201    -320.716
  O      -63.928    -456.734    -323.293
  O      -63.300    -454.315    -322.724
  H      -58.322    -459.465    -322.163
  H      -64.752    -456.461    -322.846
  H      -56.665    -459.920    -317.232
  H      -60.966    -456.525    -320.608
  H      -57.416    -456.843    -322.073
  H      -60.127    -458.089    -322.892
  H      -54.663    -460.042    -318.468
  H      -59.548    -457.483    -325.170
  H      -54.583    -459.260    -320.010
  H      -58.424    -454.992    -324.386
  H      -60.683    -454.144    -323.937
  H      -60.695    -455.157    -325.398
  P      -57.205    -457.240    -326.353
  C      -57.345    -459.837    -326.501
  O      -56.575    -458.664    -326.742
  O      -55.957    -456.245    -326.471
  O      -58.346    -456.790    -327.202
  H      -56.004    -455.756    -327.316
  H      -56.791    -460.698    -326.812
  H      -58.260    -459.783    -327.054
  H      -57.564    -459.912    -325.456

 6  7  8  9  10  11  12  13  14  15  26  29  33  34 0
 6-311+G(2d,p)
 ****
 36  38  39  40  41 0
 6-311+G(2d,p)
 ****
 1  2  3  4  5  16  17  18  19  20  21  22  23  24  25 0
 3-21G
 ****
 27  28  30  31  32  35  37  42  43  44  45  46  47 0
 3-21G
 ****
 48  49 0
 3-21G
 ****


