%nproc=1
%NoSave
%Mem=1900MB
#P OB98/GEN NMR

erre ene a

0 1
  C       50.486     -54.892      -6.780
  O       51.442     -53.898      -7.084
  H       50.977     -55.869      -6.796
  H       49.688     -54.888      -7.527
  H       50.065     -54.725      -5.785
  P       50.929     -52.378      -7.071
  C       51.366     -52.357      -9.634
  O       51.532     -51.689      -8.389
  C       52.150     -51.626     -10.720
  O       52.168     -52.428     -11.922
  C       51.550     -50.286     -11.130
  O       51.868     -49.258     -10.209
  C       52.180     -50.087     -12.502
  O       53.497     -49.531     -12.402
  C       52.257     -51.521     -13.043
  N       50.203     -50.082     -17.479
  C       51.295     -49.655     -16.809
  N       51.788     -50.106     -15.635
  C       51.031     -51.110     -15.162
  C       49.889     -51.646     -15.729
  C       49.474     -51.091     -16.950
  N       48.343     -51.501     -17.615
  N       49.364     -52.635     -14.921
  C       50.181     -52.701     -13.889
  N       51.204     -51.802     -13.996
  O       51.779     -51.725      -5.880
  O       49.461     -52.202      -6.873
  H       53.764     -49.281     -13.308
  H       51.258     -51.748      -5.056
  H       51.844     -48.841     -17.274
  H       50.069     -53.370     -13.044
  H       53.211     -51.722     -13.546
  H       51.587     -49.409     -13.117
  H       50.463     -50.377     -11.249
  H       53.185     -51.500     -10.378
  H       50.304     -52.366      -9.900
  H       51.717     -53.388      -9.532
  H       48.092     -51.042     -18.475
  H       47.734     -52.179     -17.176
  P       50.688     -48.315      -9.678
  C       51.455     -46.328     -11.168
  O       51.161     -46.794      -9.861
  O       50.725     -48.538      -8.094
  O       49.344     -48.616     -10.252
  H       50.027     -49.161      -7.821
  H       51.754     -45.302     -11.122
  H       50.584     -46.419     -11.783
  H       52.249     -46.912     -11.585

 6  7  8  9  10  11  12  13  14  15  25  28  32  33  34  35 0
 6-311+G(2d,p)
 ****
 36  37  40 0
 6-311+G(2d,p)
 ****
 1  2  3  4  5  16  17  18  19  20  21  22  23  24 0
 3-21G
 ****
 26  27  29  30  31  38  39 41  42  43  44  45  46  47  48 0
 3-21G
 ****


