%nproc=1
%NoSave
%Mem=1900MB
#P OB98/GEN NMR

erre ene a

0 1
  C      609.867     206.750      85.017
  O      609.338     206.107      83.868
  P      608.187     204.990      83.977
  C      610.169     203.540      84.806
  O      608.970     203.582      84.059
  C      610.895     202.208      84.571
  O      612.214     202.283      85.182
  C      610.184     200.989      85.152
  O      610.419     199.891      84.258
  C      610.896     200.772      86.473
  O      610.762     199.436      86.961
  C      612.326     201.173      86.090
  N      613.141     201.524      87.246
  C      614.297     200.758      87.487
  O      614.590     199.815      86.761
  N      615.089     201.087      88.564
  C      614.723     202.035      89.375
  N      615.561     202.367      90.386
  C      613.452     202.786      89.222
  C      612.743     202.493      88.143
  O      607.140     205.061      82.936
  O      607.641     205.140      85.478
  H      609.842     199.314      87.249
  H      606.943     205.840      85.558
  H      613.173     203.541      89.940
  H      611.813     203.012      87.925
  H      612.814     200.362      85.530
  H      610.488     201.448      87.235
  H      609.095     201.132      85.265
  H      611.047     202.089      83.489
  H      616.496     201.948      90.358
  H      609.916     203.612      85.872
  H      615.504     203.262      90.842
  H      610.802     204.387      84.541
  P      609.174     198.967      83.833
  C      609.920     197.348      85.721
  O      609.422     197.492      84.406
  O      609.456     198.770      82.256
  O      607.816     199.560      84.040
  H      608.608     198.583      81.811
  H      610.026     196.282      85.943
  H      609.229     197.791      86.434
  H      610.909     197.820      85.807
  H      610.617     207.453      84.719
  H      610.302     206.019      85.666
  H      609.082     207.263      85.532

 3  4  5  6  7  8  9  10  11  12  13  23  27  28  29  30  32 0
 6-311+G(2d,p)
 ****
 34  35 0
 6-311+G(2d,p)
 ****
 1  2  14  15  16  17  18  19  20  21  22  24  25  26 0
 3-21G
 ****
 31  33  36  37  38  39  40  41  42  43  44  45  46 0
 3-21G
 ****


