%nproc=1
%NoSave
%Mem=1900MB
#P OB98/GEN NMR

erre ene a

0 1
  C     -894.180     205.781    -894.100
  O     -894.440     204.829    -895.150
  P     -893.250     204.569    -896.200
  C     -893.190     201.947    -896.340
  O     -892.570     203.145    -895.830
  C     -892.970     200.812    -895.360
  O     -893.650     201.032    -894.070
  C     -893.520     199.466    -895.860
  O     -892.650     198.929    -896.840
  C     -893.540     198.679    -894.540
  O     -892.230     198.188    -894.210
  C     -894.000     199.746    -893.550
  N     -897.500     198.424    -890.050
  C     -896.170     198.342    -890.060
  N     -895.310     198.706    -891.020
  C     -895.960     199.238    -892.070
  C     -897.340     199.380    -892.240
  C     -898.140     198.947    -891.150
  N     -899.490     199.011    -891.170
  N     -897.650     199.952    -893.450
  C     -896.450     200.104    -894.040
  N     -895.430     199.697    -893.230
  O     -892.130     205.638    -895.760
  O     -893.660     204.748    -897.620
  H     -891.630     198.962    -894.180
  H     -892.080     206.351    -896.440
  H     -895.730     197.934    -889.140
  H     -896.330     200.526    -895.020
  H     -893.470     199.650    -892.570
  H     -894.230     197.802    -894.600
  H     -894.520     199.591    -896.260
  H     -891.890     200.731    -895.140
  H     -892.790     201.688    -897.310
  H     -900.000     198.605    -890.390
  H     -899.990     199.318    -892.000
  H     -894.260     202.150    -896.460
  P     -893.150     198.931    -898.360
  C     -890.810     198.874    -899.420
  O     -891.960     199.659    -899.190
  O     -894.320     200.077    -898.310
  O     -893.600     197.620    -898.890
  H     -893.990     200.886    -897.840
  H     -890.110     199.489    -900.000
  H     -891.090     197.977    -900.000
  H     -890.370     198.594    -898.470
  H     -895.043     205.864    -893.472
  H     -893.959     206.735    -894.531
  H     -893.346     205.450    -893.517

 3  4  5  6  7  8  9  10  11  12  22  25  29  30  31  32 0
 6-311+G(2d,p)
 ****
 33  36  37 0
 6-311+G(2d,p)
 ****
 1  2  13  14  15  16  17  18  19  20  21  23  24  26 0
 3-21G
 ****
 27  28  34  35  38  39  40  41  42  43  44  45  46  47  48 0
 3-21G
 ****


