%nproc=1
%NoSave
%Mem=1900MB
#P OB98/GEN NMR

erre ene a

0 1
  C      407.790    -681.553    -827.902
  O      406.991    -682.495    -828.615
  P      406.709    -683.930    -827.943
  C      408.665    -685.336    -828.880
  O      407.252    -685.070    -828.919
  C      408.925    -686.832    -828.626
  O      408.379    -687.189    -827.317
  C      408.261    -687.798    -829.633
  O      408.989    -688.145    -830.804
  C      408.148    -689.054    -828.786
  O      409.397    -689.784    -828.831
  C      407.884    -688.548    -827.382
  N      403.967    -691.602    -826.213
  C      405.241    -691.868    -826.536
  N      406.227    -690.996    -826.841
  C      405.780    -689.717    -826.769
  C      404.504    -689.298    -826.434
  C      403.555    -690.318    -826.154
  N      402.249    -690.044    -825.834
  N      404.426    -687.927    -826.472
  C      405.617    -687.537    -826.816
  N      406.492    -688.581    -826.994
  O      405.329    -684.129    -827.407
  O      407.788    -683.954    -826.748
  H      409.589    -689.941    -829.767
  H      407.386    -684.406    -825.964
  H      405.514    -692.923    -826.568
  H      405.917    -686.490    -826.967
  H      408.438    -689.129    -826.618
  H      407.388    -689.745    -829.181
  H      407.265    -687.436    -829.902
  H      409.997    -687.010    -828.608
  H      409.132    -684.739    -828.089
  H      401.615    -690.821    -825.688
  H      401.926    -689.088    -825.845
  H      409.074    -684.986    -829.827
  P      409.076    -687.135    -832.058
  C      407.034    -688.270    -833.227
  O      408.392    -687.916    -833.290
  O      410.445    -686.606    -832.342
  O      407.995    -686.027    -831.685
  H      407.063    -686.335    -831.705
  H      406.709    -688.589    -834.227
  H      406.413    -687.425    -832.904
  H      406.897    -689.114    -832.537
  H      407.883    -680.656    -828.478
  H      408.761    -681.968    -827.728
  H      407.325    -681.328    -826.965

 3  4  5  6  7  8  9  10  11  12  22  25  29  30  31  32 0
 6-311+G(2d,p)
 ****
 33  36  37 0
 6-311+G(2d,p)
 ****
 1  2  13  14  15  16  17  18  19  20  21  23  24  26 0
 3-21G
 ****
 27  28  34  35  38  39  40  41  42  43  44  45  46  47  48 0
 3-21G
 ****


