%nproc=1
%NoSave
%Mem=1900MB
#P OB98/GEN NMR

erre ene a

0 1
  C      804.632     113.975     245.900
  O      803.684     113.992     244.851
  H      804.388     114.772     246.606
  H      805.637     114.154     245.505
  H      804.604     113.018     246.428
  P      803.818     112.915     243.675
  C      802.021     111.508     242.434
  O      802.380     112.195     243.628
  C      800.530     111.198     242.430
  O      800.223     110.082     243.293
  C      799.633     112.334     242.930
  O      799.505     113.403     242.018
  C      798.334     111.569     243.125
  O      797.722     111.327     241.846
  C      798.853     110.257     243.759
  N      798.801     110.277     245.225
  C      797.932     109.365     245.833
  O      797.245     108.596     245.150
  N      797.827     109.361     247.204
  C      798.518     110.212     247.900
  N      798.373     110.163     249.256
  C      799.427     111.198     247.300
  C      799.528     111.182     245.973
  O      804.993     111.994     243.758
  O      803.783     113.784     242.328
  H      797.653     112.194     241.400
  H      803.876     113.163     241.562
  H      799.961     111.903     247.927
  H      800.175     111.879     245.458
  H      798.276     109.397     243.394
  H      797.611     112.112     243.733
  H      799.977     112.694     243.913
  H      800.259     110.900     241.410
  H      797.738     109.473     249.637
  H      802.617     110.593     242.379
  H      798.812     110.837     249.869
  H      802.251     112.135     241.564
  P      798.987     114.810     242.611
  C      799.584     117.264     241.942
  O      799.370     115.926     241.524
  O      799.994     115.080     243.825
  O      797.551     114.826     243.030
  H      799.591     114.821     244.674
  H      799.828     117.868     241.093
  H      800.390     117.293     242.645
  H      798.695     117.640     242.403

 6  7  8  9  10  11  12  13  14  15  16  26  30  31  32  33  35 0
 6-311+G(2d,p)
 ****
 37  38 0
 6-311+G(2d,p)
 ****
 1  2  3  4  5  17  18  19  20  21  22  23  24  25 0
 3-21G
 ****
 27  28  29  34  36  39  40  41  42  43  44  45  46 0
 3-21G
 ****


