%nproc=1
%NoSave
%Mem=1900MB
#P OB98/GEN NMR

erre ene a

0 1
  C     -275.189    -300.575     141.161
  O     -274.106    -299.689     140.901
  P     -272.721    -300.317     140.388
  C     -272.060    -300.562     142.881
  O     -271.658    -300.159     141.583
  C     -270.868    -301.081     143.689
  O     -271.289    -301.269     145.072
  C     -270.294    -302.416     143.203
  O     -268.883    -302.392     143.457
  C     -270.949    -303.432     144.127
  O     -270.223    -304.653     144.180
  C     -270.969    -302.635     145.432
  N     -271.691    -305.588     149.548
  C     -270.577    -305.258     148.864
  N     -270.463    -304.465     147.775
  C     -271.666    -303.996     147.402
  C     -272.892    -304.272     147.982
  C     -272.886    -305.111     149.109
  N     -274.018    -305.439     149.814
  N     -273.910    -303.622     147.299
  C     -273.305    -302.969     146.330
  N     -271.948    -303.147     146.371
  O     -272.230    -299.247     139.300
  O     -272.820    -301.683     139.793
  H     -269.275    -304.440     144.295
  H     -272.275    -299.634     138.407
  H     -269.644    -305.686     149.241
  H     -273.798    -302.368     145.583
  H     -269.991    -302.633     145.932
  H     -271.964    -303.645     143.779
  H     -270.489    -302.628     142.147
  H     -270.093    -300.305     143.694
  H     -272.791    -301.373     142.781
  H     -273.915    -305.931     150.688
  H     -274.885    -304.938     149.612
  H     -272.539    -299.727     143.398
  P     -267.915    -302.719     142.223
  C     -267.249    -305.028     143.203
  O     -266.821    -303.756     142.752
  O     -267.098    -301.357     142.022
  O     -268.640    -303.116     140.971
  H     -266.822    -301.271     141.092
  H     -266.482    -305.768     142.977
  H     -268.185    -305.333     142.728
  H     -267.401    -304.989     144.291
  H     -276.037    -300.014     141.493
  H     -274.904    -301.274     141.920
  H     -275.440    -301.104     140.265

 3  4  5  6  7  8  9  10  11  12  22  25  29  30  31  32 0
 6-311+G(2d,p)
 ****
 33  36  37 0
 6-311+G(2d,p)
 ****
 1  2  13  14  15  16  17  18  19  20  21  23  24  26 0
 3-21G
 ****
 27  28  34  35  38  39  40  41  42  43  44  45  46  47  48 0
 3-21G
 ****


