%nproc=1
%NoSave
%Mem=1900MB
#P OB98/GEN NMR

erre ene a

0 1
  C       34.804     -84.699       7.858
  O       34.296     -83.848       8.872
  P       35.313     -82.804       9.545
  C       35.549     -84.249      11.690
  O       36.205     -83.627      10.595
  C       36.541     -85.046      12.540
  O       37.106     -86.114      11.728
  C       37.715     -84.219      13.093
  O       38.032     -84.763      14.380
  C       38.813     -84.515      12.085
  O       40.116     -84.198      12.542
  C       38.544     -85.994      11.815
  N       42.692     -88.261       9.866
  C       42.331     -87.986      11.141
  N       41.205     -87.387      11.584
  C       40.401     -87.068      10.555
  C       40.643     -87.267       9.205
  C       41.853     -87.896       8.869
  N       42.223     -88.165       7.566
  N       39.599     -86.783       8.443
  C       38.742     -86.298       9.317
  N       39.173     -86.467      10.604
  O       34.361     -81.926      10.483
  O       36.083     -81.958       8.578
  H       40.200     -83.232      12.668
  H       34.625     -80.987      10.475
  H       43.039     -88.290      11.906
  H       37.809     -85.806       9.072
  H       38.883     -86.630      12.643
  H       38.636     -83.919      11.182
  H       37.483     -83.156      13.200
  H       35.990     -85.518      13.364
  H       34.788     -84.941      11.314
  H       43.187     -88.433       7.421
  H       41.695     -87.709       6.834
  H       35.041     -83.486      12.290
  P       38.605     -83.782      15.515
  C       40.841     -85.046      15.402
  O       40.194     -83.795      15.270
  O       38.473     -84.712      16.813
  O       37.938     -82.455      15.628
  H       38.868     -85.590      16.667
  H       41.890     -84.929      15.116
  H       40.374     -85.788      14.748
  H       40.795     -85.381      16.443
  H       34.022     -85.337       7.503
  H       35.597     -85.296       8.257
  H       35.176     -84.107       7.049

 3  4  5  6  7  8  9  10  11  12  22  25  29  30  31  32 0
 6-311+G(2d,p)
 ****
 33  36  37 0
 6-311+G(2d,p)
 ****
 1  2  13  14  15  16  17  18  19  20  21  23  24  26 0
 3-21G
 ****
 27  28  34  35  38  39  40  41  42  43  44  45  46  47  48 0
 3-21G
 ****


