%nproc=1
%NoSave
%Mem=1900MB
#P OB98/GEN NMR

erre ene a

0 1
  C     -174.342     528.004      74.762
  O     -174.505     527.255      75.950
  H     -173.298     527.938      74.448
  H     -174.595     529.054      74.935
  H     -174.975     527.591      73.969
  P     -175.972     527.249      76.598
  C     -175.047     528.416      78.706
  O     -175.958     528.492      77.618
  C     -174.923     529.770      79.398
  O     -176.250     530.254      79.709
  C     -174.127     529.716      80.708
  O     -173.334     530.894      80.826
  C     -175.206     529.715      81.779
  O     -174.738     530.234      83.021
  C     -176.298     530.555      81.115
  N     -179.441     531.348      85.057
  C     -178.250     531.891      84.729
  N     -177.482     531.630      83.643
  C     -178.089     530.744      82.837
  C     -179.298     530.096      83.044
  C     -179.984     530.430      84.221
  N     -181.187     529.861      84.579
  N     -179.559     529.221      82.010
  C     -178.533     529.343      81.188
  N     -177.610     530.237      81.655
  O     -176.412     525.949      77.184
  O     -176.864     527.798      75.393
  H     -175.405     530.030      83.710
  H     -176.438     528.557      74.949
  H     -177.854     532.623      85.428
  H     -178.406     528.796      80.260
  H     -176.146     531.630      81.248
  H     -175.556     528.691      81.948
  H     -173.490     528.829      80.772
  H     -174.477     530.486      78.695
  H     -174.062     528.090      78.350
  H     -181.619     530.165      85.438
  H     -181.620     529.187      83.965
  H     -175.423     527.662      79.409
  P     -171.741     530.756      80.720
  C     -171.249     530.464      83.240
  O     -171.220     529.867      81.945
  O     -170.989     532.028      80.486
  O     -171.564     529.756      79.474
  H     -170.786     530.030      78.956
  H     -170.877     529.768      83.962
  H     -172.255     530.731      83.487
  H     -170.637     531.341      83.242

 6  7  8  9  10  11  12  13  14  15  25  28  32  33  34  35 0
 6-311+G(2d,p)
 ****
 36  39  40 0
 6-311+G(2d,p)
 ****
 1  2  3  4  5  16  17  18  19  20  21  22  23  24 0
 3-21G
 ****
 26  27  29  30  31  37  38  41  42  43  44  45  46  47 0
 3-21G
 ****
 48 0
 3-21G
 ****


