%nproc=1
%NoSave
%Mem=1900MB
#P OB98/GEN NMR

erre ene a

0 1
  C     -163.360    -227.164    -468.559
  O     -162.797    -228.373    -468.089
  H     -163.971    -227.380    -469.440
  H     -162.568    -226.465    -468.844
  H     -163.995    -226.715    -467.789
  P     -161.891    -228.280    -466.768
  C     -163.924    -229.330    -465.530
  O     -162.904    -228.338    -465.524
  C     -163.984    -230.018    -464.170
  O     -164.996    -231.052    -464.198
  C     -162.693    -230.721    -463.764
  O     -161.730    -229.809    -463.263
  C     -163.203    -231.701    -462.719
  O     -163.337    -231.080    -461.434
  C     -164.589    -232.077    -463.265
  N     -165.468    -237.050    -462.579
  C     -165.622    -235.984    -461.760
  N     -165.379    -234.681    -462.030
  C     -164.950    -234.533    -463.292
  C     -164.739    -235.525    -464.235
  C     -165.022    -236.842    -463.840
  N     -164.835    -237.928    -464.659
  N     -164.246    -234.982    -465.406
  C     -164.168    -233.688    -465.177
  N     -164.587    -233.371    -463.916
  O     -161.395    -226.757    -466.780
  O     -160.752    -229.241    -466.708
  H     -163.960    -230.335    -461.548
  H     -160.515    -226.705    -467.203
  H     -165.980    -236.208    -460.758
  H     -163.809    -232.945    -465.884
  H     -165.349    -232.113    -462.474
  H     -162.526    -232.547    -462.601
  H     -162.286    -231.285    -464.613
  H     -164.277    -229.278    -463.417
  H     -163.697    -230.076    -466.302
  H     -164.883    -228.856    -465.766
  H     -165.036    -238.848    -464.298
  H     -164.401    -237.795    -465.564
  P     -160.238    -230.333    -463.014
  C     -158.779    -229.166    -464.822
  O     -159.481    -230.333    -464.427
  O     -160.441    -231.888    -462.694
  O     -159.503    -229.630    -461.922
  H     -160.401    -232.044    -461.730
  H     -158.332    -229.326    -465.781
  H     -158.015    -228.949    -464.105
  H     -159.460    -228.342    -464.878

 6  7  8  9  10  11  12  13  14  15  25  28  32  33  34  35 0
 6-311+G(2d,p)
 ****
 36  37  40 0
 6-311+G(2d,p)
 ****
 1  2  3  4  5  16  17  18  19  20  21  22  23  24 0
 3-21G
 ****
 26  27  29  30  31  38  39 41  42  43  44  45  46  47  48 0
 3-21G
 ****


