%nproc=1
%NoSave
%Mem=1900MB
#P OB98/GEN NMR

erre ene a

0 1
  C       33.585    -117.647     -64.537
  O       34.222    -117.548     -63.278
  H       34.002    -116.900     -65.217
  H       33.776    -118.642     -64.949
  H       32.505    -117.504     -64.440
  P       33.835    -116.294     -62.355
  C       34.262    -115.623     -59.881
  O       34.483    -116.577     -60.910
  C       34.854    -116.110     -58.558
  O       34.013    -117.187     -58.049
  C       36.291    -116.651     -58.669
  O       37.015    -116.250     -57.500
  C       36.094    -118.162     -58.636
  O       37.246    -118.849     -58.158
  C       34.882    -118.287     -57.723
  N       33.881    -122.773     -55.541
  C       34.319    -121.602     -55.033
  N       34.509    -120.433     -55.680
  C       34.131    -120.530     -56.969
  C       33.653    -121.658     -57.625
  C       33.554    -122.830     -56.854
  N       33.173    -124.045     -57.378
  N       33.429    -121.373     -58.958
  C       33.783    -120.112     -59.107
  N       34.215    -119.564     -57.931
  O       32.264    -116.519     -62.112
  O       34.125    -114.952     -62.938
  H       37.066    -119.810     -58.168
  H       31.761    -116.102     -62.834
  H       34.561    -121.602     -53.974
  H       33.776    -119.562     -60.041
  H       35.138    -118.218     -56.660
  H       35.873    -118.523     -59.647
  H       36.819    -116.317     -59.565
  H       34.801    -115.293     -57.831
  H       33.184    -115.477     -59.759
  H       33.228    -124.856     -56.776
  H       33.033    -124.129     -58.372
  H       34.714    -114.668     -60.166
  P       38.135    -115.118     -57.682
  C       38.597    -112.946     -56.310
  O       38.305    -114.340     -56.288
  O       37.420    -114.038     -58.621
  O       39.411    -115.620     -58.281
  H       38.076    -113.608     -59.199
  H       38.678    -112.583     -55.307
  H       37.811    -112.425     -56.816
  H       39.521    -112.783     -56.824

 6  7  8  9  10  11  12  13  14  15  25  28  32  33  34  35 0
 6-311+G(2d,p)
 ****
 36  39  40 0
 6-311+G(2d,p)
 ****
 1  2  3  4  5  16  17  18  19  20  21  22  23  24 0
 3-21G
 ****
 26  27  29  30  31  37  38  41  42  43  44  45  46  47 0
 3-21G
 ****
 48 0
 3-21G
 ****


