%nproc=1
%NoSave
%Mem=1900MB
#P OB98/GEN NMR

erre ene a

0 1
  C      -28.929    -136.228     -75.963
  O      -27.692    -135.640     -75.607
  H      -29.661    -135.993     -75.188
  H      -28.830    -137.314     -76.035
  H      -29.284    -135.821     -76.913
  P      -26.432    -135.873     -76.567
  C      -24.637    -135.589     -74.733
  O      -25.272    -136.480     -75.641
  C      -23.524    -136.309     -73.976
  O      -22.860    -135.402     -73.076
  C      -24.003    -137.484     -73.125
  O      -24.178    -138.641     -73.924
  C      -22.841    -137.615     -72.155
  O      -21.734    -138.265     -72.811
  C      -22.494    -136.141     -71.878
  N      -21.954    -134.220     -67.213
  C      -21.030    -134.851     -68.022
  N      -19.796    -135.022     -67.503
  N      -21.296    -135.287     -69.226
  C      -22.587    -135.111     -69.587
  C      -23.598    -134.516     -68.866
  C      -23.274    -133.979     -67.562
  O      -24.058    -133.390     -66.822
  N      -24.801    -134.604     -69.520
  C      -24.506    -135.203     -70.658
  N      -23.175    -135.540     -70.744
  O      -26.001    -134.694     -77.385
  O      -26.857    -137.116     -77.481
  H      -21.935    -139.218     -72.836
  H      -27.277    -136.817     -78.308
  H      -21.694    -133.912     -66.291
  H      -25.212    -135.413     -71.453
  H      -21.420    -135.994     -71.716
  H      -23.088    -138.210     -71.275
  H      -19.574    -134.845     -66.535
  H      -24.908    -137.231     -72.564
  H      -19.123    -135.535     -68.059
  H      -22.777    -136.636     -74.710
  H      -25.400    -135.228     -74.038
  H      -24.219    -134.731     -75.270
  P      -25.267    -139.762     -73.552
  C      -23.348    -140.977     -72.314
  O      -24.684    -140.507     -72.258
  O      -25.643    -140.666     -74.674
  O      -26.488    -138.938     -72.938
  H      -27.108    -138.595     -73.629
  H      -23.097    -141.449     -71.387
  H      -22.687    -140.153     -72.485
  H      -23.252    -141.683     -73.112

 6  7  8  9  10  11  12  13  14  15  26  29  33  34 0
 6-311+G(2d,p)
 ****
 36  38  39  40  41 0
 6-311+G(2d,p)
 ****
 1  2  3  4  5  16  17  18  19  20  21  22  23  24  25 0
 3-21G
 ****
 27  28  30  31  32  35  37  42  43  44  45  46  47 0
 3-21G
 ****
 48  49 0
 3-21G
 ****


