%nproc=1
%NoSave
%Mem=1900MB
#P OB98/GEN NMR

erre ene a

0 1
  C     -792.942     298.680    -294.779
  O     -794.078     298.112    -295.431
  P     -794.929     297.039    -294.576
  C     -795.631     295.652    -296.679
  O     -794.928     295.688    -295.445
  C     -795.146     294.449    -297.515
  O     -793.868     294.725    -298.104
  C     -794.991     293.167    -296.703
  O     -796.237     292.523    -296.541
  C     -794.003     292.389    -297.580
  O     -794.692     291.742    -298.682
  C     -793.088     293.503    -298.103
  N     -788.611     291.508    -296.816
  C     -789.656     290.946    -297.529
  N     -789.466     289.709    -298.012
  N     -790.808     291.566    -297.760
  C     -790.840     292.800    -297.202
  C     -789.874     293.449    -296.467
  C     -788.624     292.782    -296.265
  O     -787.627     293.263    -295.721
  N     -790.317     294.682    -296.039
  C     -791.527     294.807    -296.571
  N     -791.888     293.698    -297.304
  O     -796.415     297.592    -294.702
  O     -794.473     296.857    -293.153
  H     -795.345     292.357    -299.058
  H     -796.659     298.092    -293.887
  H     -787.761     290.987    -296.692
  H     -792.152     295.669    -296.469
  H     -792.759     293.319    -299.131
  H     -793.511     291.599    -297.030
  H     -788.639     289.155    -297.860
  H     -794.519     293.387    -295.729
  H     -790.227     289.283    -298.538
  H     -795.881     294.300    -298.343
  H     -795.415     296.573    -297.233
  H     -796.716     295.590    -296.488
  P     -796.209     291.005    -296.001
  C     -798.425     290.426    -297.244
  O     -797.056     290.136    -297.043
  O     -797.147     291.058    -294.691
  O     -794.854     290.486    -295.667
  H     -796.786     290.452    -294.013
  H     -798.700     290.142    -298.257
  H     -798.632     291.480    -297.088
  H     -799.018     289.828    -296.534
  H     -792.461     299.372    -295.439
  H     -792.256     297.902    -294.516
  H     -793.258     299.192    -293.894

 3  4  5  6  7  8  9  10  11  12  23  26  30  31 0
 6-311+G(2d,p)
 ****
 33  35  36  37  38 0
 6-311+G(2d,p)
 ****
 1  2  13  14  15  16  17  18  19  20  21  22  24  25 0
 3-21G
 ****
 27  28  29  32  34  39  40  41  42  43  44  45  46  47  48  49 0
 3-21G
 ****


