%nproc=1
%NoSave
%Mem=1900MB
#P OB98/GEN NMR

erre ene a

0 1
  C       26.349    -205.800    -102.519
  O       25.602    -204.819    -101.824
  H       25.805    -206.079    -103.426
  H       26.481    -206.696    -101.907
  H       27.327    -205.400    -102.803
  P       26.116    -204.359    -100.378
  C       27.111    -202.042    -100.960
  O       26.027    -202.759    -100.378
  C       26.612    -200.729    -101.552
  O       25.577    -200.981    -102.524
  C       25.992    -199.801    -100.517
  O       26.991    -199.173     -99.737
  C       25.181    -198.880    -101.406
  O       26.006    -197.873    -102.006
  C       24.652    -199.868    -102.472
  N       23.295    -200.326    -102.193
  C       22.290    -199.356    -102.277
  O       22.567    -198.196    -102.577
  N       20.999    -199.728    -101.996
  C       20.732    -200.955    -101.678
  N       19.433    -201.258    -101.412
  C       21.759    -202.011    -101.592
  C       23.007    -201.629    -101.855
  O       27.436    -204.904     -99.925
  O       24.923    -204.788     -99.401
  H       25.397    -197.287    -102.499
  H       25.059    -205.697     -99.075
  H       21.489    -203.022    -101.328
  H       23.823    -202.343    -101.816
  H       24.660    -199.404    -103.466
  H       24.394    -198.375    -100.847
  H       25.296    -200.357     -99.879
  H       27.447    -200.241    -102.069
  H       18.762    -200.499    -101.473
  H       27.534    -202.676    -101.747
  H       19.094    -202.192    -101.240
  H       27.890    -201.849    -100.215
  P       26.667    -198.661     -98.253
  C       26.805    -200.882     -96.948
  O       27.462    -199.659     -97.275
  O       25.220    -198.477     -97.945
  O       27.519    -197.307     -98.145
  H       27.098    -196.575     -98.662
  H       27.428    -201.458     -96.296
  H       26.617    -201.436     -97.844
  H       25.877    -200.669     -96.459

 6  7  8  9  10  11  12  13  14  15  16  26  30  31  32  33  35 0
 6-311+G(2d,p)
 ****
 37  38 0
 6-311+G(2d,p)
 ****
 1  2  3  4  5  17  18  19  20  21  22  23  24  25 0
 3-21G
 ****
 27  28  29  34  36  39  40  41  42  43  44  45  46 0
 3-21G
 ****


