%nproc=1
%NoSave
%Mem=1900MB
#P OB98/GEN NMR

erre ene a

0 1
  C     -536.566    -173.337    -453.386
  O     -537.010    -172.937    -454.670
  P     -537.412    -174.044    -455.760
  C     -539.424    -172.691    -456.609
  O     -538.193    -173.317    -456.957
  C     -539.777    -171.597    -457.622
  O     -538.797    -170.534    -457.590
  C     -539.790    -172.077    -459.061
  O     -540.924    -172.880    -459.352
  C     -539.734    -170.745    -459.808
  O     -541.034    -170.150    -459.879
  C     -538.801    -169.922    -458.900
  N     -537.455    -169.800    -459.445
  C     -537.220    -168.713    -460.292
  O     -538.144    -167.960    -460.607
  N     -535.951    -168.512    -460.757
  C     -535.023    -169.382    -460.520
  N     -533.769    -169.098    -460.956
  C     -535.266    -170.631    -459.761
  C     -536.491    -170.763    -459.242
  O     -538.095    -175.256    -455.216
  O     -536.019    -174.443    -456.436
  H     -535.933    -175.422    -456.444
  H     -541.599    -170.763    -460.388
  H     -534.483    -171.365    -459.644
  H     -536.765    -171.636    -458.651
  H     -539.216    -168.913    -458.755
  H     -539.380    -170.863    -460.841
  H     -538.873    -172.656    -459.281
  H     -540.754    -171.175    -457.345
  H     -533.634    -168.229    -461.453
  H     -539.330    -172.251    -455.609
  H     -532.936    -169.528    -460.557
  H     -540.213    -173.447    -456.578
  P     -540.687    -174.174    -460.260
  C     -542.466    -175.693    -459.141
  O     -542.069    -174.997    -460.300
  O     -539.732    -175.097    -459.355
  O     -540.069    -173.894    -461.595
  H     -539.090    -175.566    -459.922
  H     -543.541    -175.884    -459.194
  H     -542.262    -175.113    -458.237
  H     -541.939    -176.647    -459.083
  H     -536.345    -172.470    -452.799
  H     -535.685    -173.936    -453.484
  H     -537.333    -173.907    -452.905

 3  4  5  6  7  8  9  10  11  12  13  24  27  28  29  30  32 0
 6-311+G(2d,p)
 ****
 34  35 0
 6-311+G(2d,p)
 ****
 1  2  14  15  16  17  18  19  20  21  22  23  25  26 0
 3-21G
 ****
 31  33  36  37  38  39  40  41  42  43  44  45  46 0
 3-21G
 ****


