%nproc=1
%NoSave
%Mem=1900MB
#P OB98/GEN NMR

erre ene a

0 1
  C     -463.691     530.195    -133.126
  O     -463.045     531.443    -133.267
  H     -463.347     529.723    -132.205
  H     -463.445     529.541    -133.968
  H     -464.774     530.337    -133.072
  P     -463.332     532.260    -134.618
  C     -464.386     534.391    -133.570
  O     -464.592     533.209    -134.332
  C     -465.717     535.117    -133.392
  O     -466.687     534.223    -132.796
  C     -465.649     536.313    -132.458
  O     -465.109     537.472    -133.080
  C     -467.116     536.490    -132.103
  O     -467.815     537.259    -133.089
  C     -467.627     535.038    -132.068
  N     -467.816     534.566    -130.700
  C     -469.127     534.230    -130.352
  O     -470.073     534.326    -131.127
  N     -469.311     533.827    -129.058
  C     -468.353     533.769    -128.089
  O     -468.600     533.452    -126.934
  C     -466.993     534.147    -128.510
  C     -466.789     534.526    -129.776
  O     -463.912     531.139    -135.606
  O     -462.142     532.956    -135.197
  H     -463.241     530.911    -136.276
  H     -468.649     537.554    -132.662
  H     -470.253     533.583    -128.782
  H     -466.205     534.116    -127.768
  H     -465.803     534.817    -130.106
  H     -468.586     534.959    -132.592
  H     -467.233     537.005    -131.151
  H     -465.091     536.054    -131.550
  H     -466.089     535.418    -134.385
  H     -463.693     535.054    -134.096
  H     -463.952     534.126    -132.606
  P     -463.990     538.299    -132.269
  C     -462.992     539.790    -134.192
  O     -462.854     538.660    -133.341
  O     -463.353     537.130    -131.381
  O     -464.554     539.446    -131.502
  H     -463.440     536.258    -131.807
  H     -462.137     539.861    -134.831
  H     -463.068     540.677    -133.598
  H     -463.875     539.683    -134.787

 6  7  8  9  10  11  12  13  14  15  16  27  31  32  33  34  35 0
 6-311+G(2d,p)
 ****
 36  37 0
 6-311+G(2d,p)
 ****
 1  2  3  4  5  17  18  19  20  21  22  23  24  25 0
 3-21G
 ****
 26  28  29  30  38  39  40  41  42  43  44  45 0
 3-21G
 ****


