%nproc=1
%NoSave
%Mem=1900MB
#P OB98/GEN NMR

erre ene a

0 1
  C      178.804    -886.895     -94.639
  O      179.735    -886.743     -95.690
  H      178.647    -887.961     -94.457
  H      177.847    -886.446     -94.926
  H      179.178    -886.431     -93.724
  P      180.176    -885.248     -96.062
  C      182.477    -885.097     -94.870
  O      181.103    -884.733     -94.850
  C      183.359    -883.868     -95.081
  O      183.127    -882.928     -93.988
  C      184.869    -884.170     -95.111
  O      185.476    -883.266     -96.047
  C      185.328    -883.777     -93.719
  O      186.727    -883.504     -93.656
  C      184.430    -882.568     -93.468
  N      185.407    -878.892     -90.170
  C      185.533    -878.920     -91.538
  N      185.999    -877.797     -92.130
  N      185.240    -879.967     -92.274
  C      184.755    -881.014     -91.555
  C      184.581    -881.108     -90.193
  C      184.941    -879.954     -89.393
  O      184.860    -879.878     -88.164
  N      184.097    -882.350     -89.844
  C      183.966    -882.992     -90.995
  N      184.359    -882.220     -92.059
  O      178.812    -884.426     -95.872
  O      180.755    -885.071     -97.427
  H      186.912    -882.764     -94.269
  H      178.341    -884.351     -96.725
  H      185.664    -878.076     -89.650
  H      183.605    -884.003     -91.110
  H      184.774    -881.677     -94.005
  H      185.097    -884.590     -93.002
  H      186.208    -876.943     -91.639
  H      185.117    -885.199     -95.383
  H      186.059    -877.782     -93.147
  H      183.041    -883.365     -96.004
  H      182.648    -885.806     -95.688
  H      182.733    -885.579     -93.922
  P      185.915    -883.849     -97.484
  C      183.458    -883.733     -98.339
  O      184.631    -884.524     -98.154
  O      186.818    -885.120     -97.093
  O      186.670    -882.883     -98.334
  H      187.470    -885.286     -97.789
  H      182.695    -884.328     -98.796
  H      183.686    -882.899     -98.970
  H      183.113    -883.379     -97.390

 6  7  8  9  10  11  12  13  14  15  26  29  33  34 0
 6-311+G(2d,p)
 ****
 36  38  39  40  41 0
 6-311+G(2d,p)
 ****
 1  2  3  4  5  16  17  18  19  20  21  22  23  24  25 0
 3-21G
 ****
 27  28  30  31  32  35  37  42  43  44  45  46  47 0
 3-21G
 ****
 48  49 0
 3-21G
 ****


