%nproc=1
%NoSave
%Mem=1900MB
#P OB98/GEN NMR

erre ene a

0 1
  C      -67.099     -15.920     -53.718
  O      -66.256     -14.896     -53.227
  H      -67.168     -16.709     -52.963
  H      -66.696     -16.351     -54.638
  H      -68.101     -15.524     -53.902
  P      -65.771     -13.760     -54.252
  C      -66.983     -12.239     -55.947
  O      -67.059     -13.422     -55.155
  C      -67.700     -12.422     -57.284
  O      -67.058     -13.448     -58.072
  C      -69.146     -12.875     -57.159
  O      -70.013     -11.928     -56.579
  C      -69.435     -13.390     -58.560
  O      -69.780     -12.342     -59.465
  C      -68.065     -13.999     -58.952
  N      -68.075     -15.457     -58.914
  C      -67.379     -16.098     -59.932
  O      -66.799     -15.501     -60.839
  N      -67.396     -17.466     -59.896
  C      -68.067     -18.234     -58.990
  O      -68.060     -19.459     -59.025
  C      -68.819     -17.500     -57.960
  C      -68.787     -16.164     -57.967
  O      -64.542     -14.087     -55.046
  O      -65.620     -12.457     -53.337
  H      -69.109     -11.640     -59.356
  H      -65.096     -11.756     -53.797
  H      -66.884     -17.950     -60.617
  H      -69.372     -18.076     -57.232
  H      -69.333     -15.599     -57.214
  H      -67.789     -13.688     -59.968
  H      -70.254     -14.112     -58.573
  H      -69.175     -13.750     -56.496
  H      -67.624     -11.481     -57.841
  H      -65.924     -12.029     -56.132
  H      -67.421     -11.401     -55.394
  P      -71.467     -12.278     -56.026
  C      -72.364     -13.740     -54.052
  O      -71.343     -13.520     -55.019
  O      -72.578     -12.288     -57.023
  O      -71.732     -11.049     -55.011
  H      -72.690     -10.852     -55.043
  H      -72.123     -14.604     -53.469
  H      -73.299     -13.895     -54.549
  H      -72.438     -12.886     -53.411

 6  7  8  9  10  11  12  13  14  15  16  26  31  32  33  34  35 0
 6-311+G(2d,p)
 ****
 36  37 0
 6-311+G(2d,p)
 ****
 1  2  3  4  5  17  18  19  20  21  22  23  24  25 0
 3-21G
 ****
 27  28  29  30  38  39  40  41  42  43  44  45 0
 3-21G
 ****


