%nproc=1
%NoSave
%Mem=1900MB
#P OB98/GEN NMR

erre ene a

0 1
  C     -209.082    -151.335      52.432
  O     -210.025    -150.416      52.942
  H     -208.107    -150.843      52.371
  H     -209.375    -151.659      51.431
  H     -208.999    -152.201      53.095
  P     -211.531    -150.943      53.108
  C     -211.795    -151.116      55.683
  O     -212.057    -150.357      54.512
  C     -211.151    -150.236      56.756
  O     -209.918    -149.674      56.227
  C     -212.036    -149.066      57.210
  O     -211.856    -148.871      58.617
  C     -211.444    -147.879      56.469
  O     -211.741    -146.643      57.109
  C     -209.965    -148.254      56.471
  N     -205.867    -145.424      55.757
  C     -206.326    -146.067      56.891
  N     -205.585    -145.932      58.011
  N     -207.423    -146.776      56.925
  C     -208.053    -146.847      55.727
  C     -207.708    -146.250      54.538
  C     -206.503    -145.447      54.519
  O     -206.058    -144.837      53.553
  N     -208.627    -146.534      53.558
  C     -209.522    -147.301      54.154
  N     -209.215    -147.520      55.469
  O     -211.350    -152.505      53.409
  O     -212.432    -150.693      51.946
  H     -212.715    -146.531      57.109
  H     -212.113    -153.015      53.075
  H     -205.022    -144.880      55.789
  H     -210.405    -147.716      53.684
  H     -209.486    -148.056      57.438
  H     -211.837    -147.840      55.446
  H     -204.713    -145.428      58.054
  H     -213.097    -149.208      56.993
  H     -205.896    -146.407      58.852
  H     -210.869    -150.868      57.606
  H     -211.116    -151.938      55.432
  H     -212.734    -151.531      56.061
  P     -213.146    -149.022      59.559
  C     -212.550    -151.341      60.562
  O     -212.767    -149.959      60.805
  O     -214.122    -149.944      58.684
  O     -213.796    -147.724      59.906
  H     -214.864    -149.410      58.348
  H     -212.308    -151.831      61.482
  H     -211.741    -151.459      59.871
  H     -213.437    -151.774      60.150

 6  7  8  9  10  11  12  13  14  15  26  29  33  34 0
 6-311+G(2d,p)
 ****
 36  38  39  40  41 0
 6-311+G(2d,p)
 ****
 1  2  3  4  5  16  17  18  19  20  21  22  23  24  25 0
 3-21G
 ****
 27  28  30  31  32  35  37  42  43  44  45  46  47 0
 3-21G
 ****
 48  49 0
 3-21G
 ****


