%nproc=1
%NoSave
%Mem=1900MB
#P OB98/GEN NMR

erre ene a

0 1
  C       63.890    -555.749     373.466
  O       63.378    -556.432     372.340
  H       63.693    -556.343     374.361
  H       63.403    -554.777     373.577
  H       64.971    -555.615     373.365
  P       63.472    -555.678     370.928
  C       64.036    -556.410     368.497
  O       64.096    -556.722     369.884
  C       63.314    -557.529     367.752
  O       64.037    -558.771     367.909
  C       61.911    -557.813     368.269
  O       60.952    -556.879     367.794
  C       61.677    -559.208     367.715
  O       61.205    -559.172     366.362
  C       63.077    -559.840     367.802
  N       63.177    -560.783     368.913
  C       63.028    -562.128     368.583
  O       62.827    -562.523     367.433
  N       63.084    -563.009     369.625
  C       63.219    -562.682     370.943
  O       63.201    -563.523     371.834
  C       63.349    -561.250     371.239
  C       63.323    -560.375     370.225
  O       64.650    -554.621     371.161
  O       62.209    -555.022     370.477
  H       64.275    -553.724     371.243
  H       61.137    -560.104     366.075
  H       62.980    -563.990     369.404
  H       63.457    -560.951     372.276
  H       63.409    -559.308     370.419
  H       63.310    -560.381     366.874
  H       60.929    -559.739     368.303
  H       61.911    -557.857     369.364
  H       63.286    -557.277     366.683
  H       65.052    -556.317     368.096
  H       63.520    -555.451     368.370
  P       59.495    -556.896     368.470
  C       57.308    -555.517     367.980
  O       58.717    -555.635     367.861
  O       59.859    -556.465     369.965
  O       58.801    -558.213     368.336
  H       60.666    -555.927     370.001
  H       56.985    -554.611     367.511
  H       57.038    -555.499     369.015
  H       56.839    -556.352     367.503

 6  7  8  9  10  11  12  13  14  15  16  27  31  32  33  34  35 0
 6-311+G(2d,p)
 ****
 36  37 0
 6-311+G(2d,p)
 ****
 1  2  3  4  5  17  18  19  20  21  22  23  24  25 0
 3-21G
 ****
 26  28  29  30  38  39  40  41  42  43  44  45 0
 3-21G
 ****


