%nproc=1
%NoSave
%Mem=1900MB
#P OB98/GEN NMR

erre ene a

0 1
  C     -222.325     427.762     313.930
  O     -223.286     428.712     313.466
  P     -223.342     429.024     311.897
  C     -223.059     431.656     312.087
  O     -223.816     430.538     311.663
  C     -223.912     432.930     311.923
  O     -224.930     432.990     312.947
  C     -223.092     434.218     312.010
  O     -222.533     434.584     310.766
  C     -224.118     435.209     312.536
  O     -224.983     435.632     311.471
  C     -224.902     434.322     313.541
  N     -224.377     434.210     314.922
  C     -224.943     434.979     315.940
  O     -225.861     435.768     315.785
  N     -224.402     434.806     317.198
  C     -223.508     433.848     317.548
  O     -223.107     433.702     318.710
  C     -223.052     432.962     316.479
  C     -223.495     433.192     315.230
  O     -224.581     428.157     311.379
  O     -222.087     428.703     311.150
  H     -225.666     436.213     311.864
  H     -224.276     427.469     310.758
  H     -224.748     435.407     317.927
  H     -222.373     432.156     316.730
  H     -223.157     432.548     314.425
  H     -225.937     434.667     313.628
  H     -223.646     436.106     312.918
  H     -222.314     434.109     312.780
  H     -224.420     432.882     310.944
  H     -222.133     431.740     311.515
  H     -222.776     431.527     313.142
  P     -220.956     434.792     310.639
  C     -220.984     436.668     308.875
  O     -220.705     435.302     309.124
  O     -220.092     433.649     311.076
  O     -220.667     436.122     311.492
  H     -220.381     435.896     312.408
  H     -220.629     436.911     307.870
  H     -220.459     437.304     309.600
  H     -222.060     436.843     308.930
  H     -222.408     427.660     314.992
  H     -221.341     428.099     313.680
  H     -222.507     426.815     313.466

 3  4  5  6  7  8  9  10  11  12  13  23  28  29  30  31  32 0
 6-311+G(2d,p)
 ****
 33  34 0
 6-311+G(2d,p)
 ****
 1  2  14  15  16  17  18  19  20  21  22  24  25  26  27 0
 3-21G
 ****
 35  36  37  38  39  40  41  42  43  44  45 0
 3-21G
 ****


