%nproc=1
%NoSave
%Mem=1900MB
#P OB98/GEN NMR

erre ene a

0 1
  C      -51.203       0.317      94.181
  O      -50.741       0.999      95.333
  H      -51.067       0.964      93.310
  H      -52.266       0.077      94.270
  H      -50.630      -0.601      94.030
  P      -50.977       0.316      96.763
  C      -51.570       2.723      97.503
  O      -50.899       1.509      97.827
  C      -51.068       3.853      98.397
  O      -51.366       3.567      99.778
  C      -49.560       4.047      98.328
  O      -49.190       4.706      97.134
  C      -49.314       4.822      99.608
  O      -49.632       6.210      99.446
  C      -50.304       4.138     100.578
  N      -49.669       3.120     101.409
  C      -49.174       3.556     102.642
  O      -49.289       4.733     102.980
  N      -48.540       2.644     103.450
  C      -48.427       1.411     103.072
  N      -47.788       0.560     103.919
  C      -48.947       0.908     101.786
  C      -49.546       1.809     101.010
  O      -50.120      -0.866      97.096
  O      -52.535      -0.056      96.749
  H      -48.962       6.566      98.829
  H      -52.668      -0.951      96.386
  H      -48.834      -0.130     101.515
  H      -49.959       1.522     100.049
  H      -50.770       4.879     101.239
  H      -48.274       4.754      99.922
  H      -49.052       3.081      98.413
  H      -51.599       4.773      98.121
  H      -47.438       0.951     104.787
  H      -52.639       2.555      97.669
  H      -47.719      -0.435     103.771
  H      -51.418       2.979      96.449
  P      -48.277       3.965      96.043
  C      -48.258       6.345      95.050
  O      -48.252       4.947      94.773
  O      -48.651       2.551      95.753
  O      -46.799       4.121      96.643
  H      -46.655       3.515      97.409
  H      -48.240       6.891      94.130
  H      -47.396       6.597      95.631
  H      -49.143       6.597      95.597

 6  7  8  9  10  11  12  13  14  15  16  26  30  31  32  33  35 0
 6-311+G(2d,p)
 ****
 37  38 0
 6-311+G(2d,p)
 ****
 1  2  3  4  5  17  18  19  20  21  22  23  24  25 0
 3-21G
 ****
 27  28  29  34  36  39  40  41  42  43  44  45  46 0
 3-21G
 ****


