%nproc=1
%NoSave
%Mem=1900MB
#P OB98/GEN NMR

erre ene a

0 1
  C      -78.950      52.515      17.706
  O      -77.765      52.139      17.035
  H      -79.805      52.110      17.160
  H      -79.033      53.604      17.731
  H      -78.958      52.116      18.722
  P      -76.378      52.558      17.724
  C      -76.020      50.220      18.788
  O      -75.527      51.203      17.889
  C      -74.896      49.690      19.677
  O      -75.473      48.824      20.699
  C      -73.832      48.871      18.929
  O      -72.564      49.124      19.547
  C      -74.231      47.437      19.236
  O      -73.151      46.521      19.075
  C      -74.721      47.595      20.674
  N      -75.357      44.269      24.394
  C      -74.480      45.330      24.280
  N      -73.641      45.540      25.316
  N      -74.430      46.118      23.240
  C      -75.349      45.813      22.292
  C      -76.267      44.790      22.282
  C      -76.294      43.907      23.429
  O      -77.034      42.940      23.579
  N      -77.003      44.798      21.123
  C      -76.531      45.824      20.437
  N      -75.527      46.470      21.105
  O      -76.823      52.909      19.220
  O      -75.656      53.690      17.074
  H      -72.454      46.762      19.720
  H      -77.000      53.865      19.304
  H      -75.345      43.685      25.211
  H      -76.875      46.136      19.461
  H      -73.893      47.685      21.389
  H      -75.049      47.122      18.575
  H      -73.654      45.003      26.169
  H      -73.771      49.081      17.857
  H      -73.020      46.339      25.270
  H      -74.439      50.536      20.203
  H      -76.442      49.391      18.211
  H      -76.808      50.661      19.407
  P      -71.374      49.671      18.627
  C      -71.784      52.235      18.768
  O      -70.974      51.133      19.147
  O      -72.111      49.980      17.239
  O      -70.243      48.712      18.449
  H      -71.478      49.897      16.502
  H      -71.386      53.133      19.193
  H      -72.782      52.083      19.124
  H      -71.795      52.320      17.701

 6  7  8  9  10  11  12  13  14  15  26  29  33  34 0
 6-311+G(2d,p)
 ****
 36  38  39  40  41 0
 6-311+G(2d,p)
 ****
 1  2  3  4  5  16  17  18  19  20  21  22  23  24  25 0
 3-21G
 ****
 27  28  30  31  32  35  37  42  43  44  45  46  47 0
 3-21G
 ****
 48  49 0
 3-21G
 ****


