%nproc=1
%NoSave
%Mem=1900MB
#P OB98/GEN NMR

erre ene a

0 1
  C     -888.260       9.342    -897.030
  O     -888.810       9.623    -898.330
  P     -890.390       9.478    -898.520
  C     -890.710      12.001    -898.970
  O     -891.120      10.880    -898.220
  C     -891.850      13.059    -899.100
  O     -892.990      12.484    -899.810
  C     -892.350      13.543    -897.770
  O     -892.720      14.931    -897.870
  C     -893.620      12.702    -897.510
  O     -894.470      13.288    -896.530
  C     -894.150      12.677    -898.990
  N     -899.080      11.376    -898.840
  C     -898.450      12.530    -898.570
  N     -897.120      12.799    -898.640
  C     -896.430      11.681    -898.990
  C     -896.940      10.415    -899.270
  C     -898.330      10.267    -899.170
  N     -898.990       9.101    -899.380
  N     -895.920       9.540    -899.570
  C     -894.830      10.276    -899.480
  N     -895.070      11.574    -899.190
  O     -890.840       8.520    -897.250
  O     -890.800       8.824    -899.810
  H     -895.030      13.975    -897.020
  H     -891.040       7.651    -897.580
  H     -899.080      13.372    -898.320
  H     -893.800       9.869    -899.630
  H     -894.670      13.583    -899.270
  H     -893.340      11.714    -897.160
  H     -891.630      13.444    -896.890
  H     -891.450      13.933    -899.680
  H     -890.430      11.659    -900.000
  H     -900.000       9.062    -899.270
  H     -898.450       8.263    -899.610
  H     -889.800      12.443    -898.560
  P     -891.880      16.005    -897.040
  C     -890.620      17.170    -898.990
  O     -890.530      16.261    -897.910
  O     -891.280      15.143    -895.820
  O     -892.620      17.196    -896.570
  H     -891.120      15.721    -895.030
  H     -889.740      17.797    -899.030
  H     -891.490      17.807    -898.950
  H     -890.670      16.598    -899.950
  H     -887.199       9.480    -897.054
  H     -888.482       8.331    -896.760
  H     -888.690      10.006    -896.310

 3  4  5  6  7  8  9  10  11  12  22  25  29  30  31  32 0
 6-311+G(2d,p)
 ****
 33  36  37 0
 6-311+G(2d,p)
 ****
 1  2  13  14  15  16  17  18  19  20  21  23  24  26 0
 3-21G
 ****
 27  28  34  35  38  39  40  41  42  43  44  45  46  47  48 0
 3-21G
 ****


