%nproc=1
%NoSave
%Mem=1900MB
#P OB98/GEN NMR

erre ene a

0 1
  C      -87.540      -1.344      92.213
  O      -87.917      -0.408      91.226
  H      -86.489      -1.609      92.062
  H      -88.143      -2.251      92.115
  H      -87.655      -0.928      93.218
  P      -89.316       0.361      91.375
  C      -88.915       2.436      92.861
  O      -88.952       1.917      91.537
  C      -88.743       3.956      92.823
  O      -87.470       4.257      92.171
  C      -89.856       4.681      92.038
  O      -90.096       5.952      92.654
  C      -89.193       4.877      90.689
  O      -89.815       5.891      89.939
  C      -87.757       5.184      91.106
  N      -86.831       5.048      89.983
  C      -86.134       6.188      89.603
  O      -86.267       7.283      90.148
  N      -85.321       6.057      88.510
  C      -85.224       4.954      87.714
  O      -84.540       4.914      86.703
  C      -86.027       3.792      88.134
  C      -86.777       3.887      89.236
  O      -90.247      -0.172      92.413
  O      -89.952       0.316      89.906
  H      -89.632       5.760      88.988
  H      -90.917       0.454      89.950
  H      -84.800       6.874      88.227
  H      -85.987       2.902      87.519
  H      -87.394       3.057      89.567
  H      -87.678       6.197      91.517
  H      -89.247       3.949      90.106
  H      -90.784       4.110      91.984
  H      -88.671       4.335      93.851
  H      -88.068       1.977      93.385
  H      -89.841       2.174      93.382
  P      -91.570       6.424      93.080
  C      -92.125       5.372      95.356
  O      -91.685       6.546      94.681
  O      -92.672       5.632      92.450
  O      -91.653       7.949      92.588
  H      -92.503       8.095      92.133
  H      -92.166       5.560      96.409
  H      -91.441       4.572      95.163
  H      -93.098       5.102      95.004

 6  7  8  9  10  11  12  13  14  15  16  26  31  32  33  34  35 0
 6-311+G(2d,p)
 ****
 36  37 0
 6-311+G(2d,p)
 ****
 1  2  3  4  5  17  18  19  20  21  22  23  24  25 0
 3-21G
 ****
 27  28  29  30  38  39  40  41  42  43  44  45 0
 3-21G
 ****


