%nproc=1
%NoSave
%Mem=1900MB
#P OB98/GEN NMR

erre ene a

0 1
  C      329.354     -36.730      -5.934
  O      328.802     -35.957      -6.990
  P      327.710     -34.844      -6.600
  C      328.002     -34.184      -9.092
  O      327.110     -34.322      -7.996
  C      327.229     -33.997     -10.395
  O      326.528     -35.208     -10.726
  C      326.164     -32.910     -10.345
  O      326.718     -31.617     -10.522
  C      325.290     -33.302     -11.530
  O      325.875     -32.803     -12.747
  C      325.352     -34.838     -11.487
  N      320.307     -34.706     -11.033
  C      321.148     -33.905     -11.781
  N      320.563     -32.950     -12.538
  N      322.454     -34.027     -11.790
  C      322.896     -35.046     -11.019
  C      322.163     -35.909     -10.231
  C      320.724     -35.728     -10.194
  O      319.935     -36.363      -9.497
  N      322.968     -36.824      -9.603
  C      324.180     -36.551     -10.039
  N      324.195     -35.454     -10.878
  O      328.607     -33.611      -6.103
  O      326.719     -35.259      -5.564
  H      326.754     -33.213     -12.828
  H      328.094     -33.050      -5.488
  H      319.311     -34.579     -11.082
  H      325.071     -37.101      -9.778
  H      325.480     -35.256     -12.493
  H      324.278     -32.890     -11.466
  H      319.562     -32.898     -12.679
  H      325.578     -32.974      -9.417
  H      321.162     -32.382     -13.125
  H      327.952     -33.789     -11.198
  H      328.620     -35.089      -9.177
  H      328.661     -33.328      -8.910
  P      326.502     -30.568      -9.320
  C      326.989     -28.459     -10.760
  O      326.037     -29.207     -10.024
  O      327.995     -30.263      -8.827
  O      325.629     -31.071      -8.213
  H      327.985     -29.982      -7.889
  H      327.688     -29.118     -11.287
  H      327.544     -27.811     -10.081
  H      326.463     -27.847     -11.499
  H      330.061     -37.426      -6.334
  H      328.572     -37.263      -5.435
  H      329.845     -36.083      -5.237

 3  4  5  6  7  8  9  10  11  12  23  26  30  31  33  0
 6-311+G(2d,p)
 ****
 35  36  37  38 0
 6-311+G(2d,p)
 ****
 1  2  13  14  15  16  17  18  19  20  21  22  24  25  27  28  29 0
 3-21G
 ****
 32  34  39  40  41  42  43  44  45  46  47  48  49 0
 3-21G
 ****


