%nproc=1
%NoSave
%Mem=1900MB
#P OB98/GEN NMR

erre ene a

0 1
  C      293.238    -621.720     668.573
  O      294.073    -622.328     667.586
  P      295.479    -621.676     667.154
  C      294.476    -619.505     666.211
  O      295.384    -620.059     667.146
  C      295.133    -618.510     665.236
  O      294.253    -618.214     664.111
  C      295.522    -617.158     665.868
  O      296.689    -616.711     665.153
  C      294.313    -616.290     665.517
  O      294.581    -614.894     665.613
  C      294.008    -616.790     664.109
  N      290.961    -613.449     661.702
  C      292.313    -613.542     661.782
  N      293.048    -614.476     662.413
  C      292.260    -615.410     662.967
  C      290.880    -615.445     662.964
  C      290.209    -614.397     662.295
  N      288.843    -614.293     662.258
  N      290.416    -616.554     663.658
  C      291.508    -617.154     664.085
  N      292.645    -616.505     663.690
  O      296.067    -622.257     665.892
  O      296.459    -621.982     668.394
  H      295.058    -614.739     666.437
  H      297.310    -622.306     668.061
  H      292.861    -612.742     661.276
  H      291.524    -618.062     664.716
  H      294.679    -616.340     663.373
  H      293.498    -616.519     666.219
  H      295.715    -617.222     666.939
  H      296.011    -619.000     664.809
  H      293.650    -619.000     666.747
  H      288.469    -613.438     661.833
  H      288.274    -614.916     662.813
  H      294.018    -620.334     665.627
  P      298.037    -616.352     665.931
  C      297.512    -613.847     666.049
  O      297.742    -615.030     666.788
  O      299.245    -616.260     665.047
  O      298.205    -617.497     667.039
  H      299.127    -617.530     667.347
  H      298.470    -613.448     665.667
  H      297.060    -613.096     666.709
  H      296.838    -614.029     665.207
  H      292.357    -622.312     668.709
  H      292.961    -620.738     668.250
  H      293.770    -621.654     669.499

 3  4  5  6  7  8  9  10  11  12  22  25  29  30  31  32 0
 6-311+G(2d,p)
 ****
 33  36  37 0
 6-311+G(2d,p)
 ****
 1  2  13  14  15  16  17  18  19  20  21  23  24  26 0
 3-21G
 ****
 27  28  34  35  38  39  40  41  42  43  44  45  46  47  48 0
 3-21G
 ****


