%nproc=1
%NoSave
%Mem=1900MB
#P OB98/GEN NMR

erre ene a

0 1
  C      586.640    -357.287    -742.707
  O      586.942    -356.767    -741.429
  H      587.268    -358.162    -742.886
  H      586.849    -356.535    -743.472
  H      585.589    -357.586    -742.759
  P      586.060    -355.527    -740.920
  C      585.561    -356.685    -738.654
  O      586.115    -355.550    -739.318
  C      585.217    -356.350    -737.208
  O      586.455    -356.112    -736.468
  C      584.334    -355.103    -737.041
  O      583.457    -355.326    -735.925
  C      585.337    -354.024    -736.644
  O      584.724    -352.927    -735.967
  C      586.290    -354.851    -735.781
  N      589.078    -352.409    -732.381
  C      587.846    -353.018    -732.253
  N      587.261    -352.975    -731.041
  N      587.237    -353.623    -733.243
  C      587.951    -353.624    -734.400
  C      589.173    -353.052    -734.647
  C      589.824    -352.359    -733.553
  O      590.905    -351.779    -733.604
  N      589.545    -353.243    -735.955
  C      588.552    -353.928    -736.487
  N      587.555    -354.183    -735.582
  O      584.569    -355.993    -741.255
  O      586.389    -354.208    -741.547
  H      585.434    -352.292    -735.727
  H      584.295    -355.656    -742.130
  H      589.496    -351.945    -731.586
  H      588.502    -354.261    -737.518
  H      585.881    -355.061    -734.784
  H      585.843    -353.642    -737.534
  H      587.691    -352.565    -730.221
  H      583.748    -354.840    -737.925
  H      586.376    -353.455    -730.920
  H      584.745    -357.227    -736.748
  H      586.299    -357.501    -738.673
  H      584.663    -357.008    -739.190
  P      581.963    -355.816    -736.231
  C      581.687    -357.425    -734.208
  O      581.279    -356.225    -734.841
  O      582.190    -357.233    -736.945
  O      581.169    -354.885    -737.090
  H      581.446    -357.421    -737.549
  H      581.139    -357.552    -733.298
  H      582.734    -357.376    -733.991
  H      581.496    -358.254    -734.858

 6  7  8  9  10  11  12  13  14  15  26  29  33  34 0
 6-311+G(2d,p)
 ****
 36  38  39  40  41 0
 6-311+G(2d,p)
 ****
 1  2  3  4  5  16  17  18  19  20  21  22  23  24  25 0
 3-21G
 ****
 27  28  30  31  32  35  37  42  43  44  45  46  47 0
 3-21G
 ****
 48  49 0
 3-21G
 ****


