%nproc=1
%NoSave
%Mem=1900MB
#P OB98/GEN NMR

erre ene a

0 1
  C     -336.980     -17.134     427.522
  O     -336.277     -15.944     427.826
  H     -337.133     -17.179     426.438
  H     -337.956     -17.110     428.016
  H     -336.421     -18.019     427.838
  P     -335.535     -15.823     429.238
  C     -336.748     -13.890     430.440
  O     -335.597     -14.288     429.698
  C     -336.751     -12.382     430.723
  O     -335.494     -11.989     431.310
  C     -336.899     -11.544     429.439
  O     -338.229     -11.355     429.000
  C     -336.260     -10.229     429.858
  O     -337.214      -9.388     430.528
  C     -335.162     -10.670     430.837
  N     -330.993      -7.983     429.578
  C     -332.180      -7.541     430.142
  N     -332.293      -6.204     430.334
  N     -333.175      -8.331     430.457
  C     -332.953      -9.632     430.122
  C     -331.826     -10.187     429.550
  C     -330.717      -9.304     429.253
  O     -329.646      -9.639     428.750
  N     -331.980     -11.538     429.357
  C     -333.215     -11.779     429.736
  N     -333.838     -10.661     430.229
  O     -333.983     -16.014     428.869
  O     -335.967     -16.823     430.271
  H     -337.538      -9.857     431.319
  H     -333.496     -16.363     429.639
  H     -330.255      -7.324     429.383
  H     -333.691     -12.762     429.700
  H     -335.115     -10.014     431.710
  H     -335.888      -9.664     428.991
  H     -331.607      -5.547     429.999
  H     -336.288     -11.979     428.638
  H     -333.224      -5.831     430.482
  H     -337.530     -12.151     431.448
  H     -336.728     -14.439     431.377
  H     -337.662     -14.175     429.916
  P     -338.786     -12.228     427.778
  C     -338.392     -10.507     425.863
  O     -339.326     -11.186     426.670
  O     -340.130     -12.857     428.381
  O     -337.862     -13.265     427.262
  H     -339.960     -13.758     428.704
  H     -338.909      -9.859     425.186
  H     -337.817     -11.218     425.307
  H     -337.740      -9.928     426.483

 6  7  8  9  10  11  12  13  14  15  26  29  33  34 0
 6-311+G(2d,p)
 ****
 36  38  39  40  41 0
 6-311+G(2d,p)
 ****
 1  2  3  4  5  16  17  18  19  20  21  22  23  24  25 0
 3-21G
 ****
 27  28  30  31  32  35  37  42  43  44  45  46  47 0
 3-21G
 ****
 48  49 0
 3-21G
 ****


