%nproc=1
%NoSave
%Mem=1900MB
#P OB98/GEN NMR

erre ene a

0 1
  C      737.804      -2.463    -500.662
  O      736.497      -2.140    -501.100
  H      738.468      -1.628    -500.877
  H      738.176      -3.354    -501.164
  H      737.799      -2.620    -499.576
  P      735.393      -3.304    -501.115
  C      735.029      -4.254    -503.497
  O      735.831      -4.293    -502.312
  C      735.570      -3.231    -504.493
  O      736.952      -3.529    -504.813
  C      734.846      -3.238    -505.837
  O      733.529      -2.747    -505.779
  C      735.867      -2.572    -506.765
  O      735.785      -1.148    -506.755
  C      737.212      -3.026    -506.130
  N      737.900      -4.000    -506.965
  C      738.925      -3.502    -507.758
  O      739.261      -2.322    -507.783
  N      739.568      -4.429    -508.551
  C      739.241      -5.747    -508.667
  O      739.814      -6.501    -509.431
  C      738.112      -6.200    -507.834
  C      737.503      -5.330    -507.030
  O      733.961      -2.848    -501.191
  O      735.728      -4.160    -499.803
  H      736.678      -0.804    -506.983
  H      734.962      -4.742    -499.556
  H      740.331      -4.086    -509.128
  H      737.824      -7.246    -507.907
  H      736.672      -5.633    -506.409
  H      737.878      -2.153    -506.013
  H      735.737      -2.903    -507.797
  H      734.771      -4.287    -506.166
  H      735.536      -2.227    -504.028
  H      734.008      -3.951    -503.191
  H      734.984      -5.248    -503.944
  P      732.384      -3.173    -506.824
  C      731.875      -1.189    -508.435
  O      732.630      -2.377    -508.202
  O      730.993      -3.284    -506.278
  O      732.856      -4.679    -507.210
  H      732.060      -5.208    -507.350
  H      732.146      -0.775    -509.384
  H      732.082      -0.478    -507.663
  H      730.831      -1.424    -508.433

 6  7  8  9  10  11  12  13  14  15  16  26  31  32  33  34  35 0
 6-311+G(2d,p)
 ****
 36  37 0
 6-311+G(2d,p)
 ****
 1  2  3  4  5  17  18  19  20  21  22  23  24  25 0
 3-21G
 ****
 27  28  29  30  38  39  40  41  42  43  44  45 0
 3-21G
 ****


