%nproc=1
%NoSave
%Mem=1900MB
#P OB98/GEN NMR

erre ene a

0 1
  C     -775.122    -308.666     369.890
  O     -774.824    -308.150     371.173
  P     -773.906    -309.043     372.129
  C     -772.871    -307.081     373.517
  O     -773.720    -308.229     373.506
  C     -772.975    -306.372     374.870
  O     -774.316    -305.851     375.052
  C     -772.729    -307.282     376.055
  O     -771.340    -307.512     376.259
  C     -773.378    -306.508     377.196
  O     -772.498    -305.507     377.705
  C     -774.596    -305.860     376.479
  N     -775.847    -306.532     376.777
  C     -776.425    -306.231     378.009
  O     -775.898    -305.459     378.816
  N     -777.603    -306.872     378.299
  C     -778.219    -307.822     377.521
  O     -779.238    -308.406     377.858
  C     -777.544    -308.130     376.240
  C     -776.410    -307.486     375.938
  O     -772.458    -308.992     371.462
  O     -774.391    -310.445     372.321
  H     -773.062    -304.816     378.116
  H     -772.012    -309.854     371.583
  H     -778.039    -306.650     379.179
  H     -778.003    -308.855     375.598
  H     -775.897    -307.702     375.014
  H     -774.677    -304.804     376.775
  H     -773.662    -307.145     378.034
  H     -773.257    -308.234     375.920
  H     -772.274    -305.532     374.871
  H     -773.177    -306.397     372.713
  H     -771.839    -307.403     373.323
  P     -770.905    -308.960     376.806
  C     -768.338    -308.561     376.431
  O     -769.409    -308.769     377.337
  O     -770.758    -309.761     375.423
  O     -771.897    -309.557     377.765
  H     -770.457    -309.199     374.693
  H     -768.677    -307.952     375.571
  H     -767.971    -309.518     376.071
  H     -767.541    -308.036     376.941
  H     -775.740    -307.971     369.361
  H     -775.639    -309.597     369.991
  H     -774.213    -308.820     369.348

 3  4  5  6  7  8  9  10  11  12  13  23  28  29  30  31  32 0
 6-311+G(2d,p)
 ****
 33  34 0
 6-311+G(2d,p)
 ****
 1  2  14  15  16  17  18  19  20  21  22  24  25  26 0
 3-21G
 ****
 27  35  36  37  38  39  40  41  42  43  44  45 0
 3-21G
 ****


