%nproc=1
%NoSave
%Mem=1900MB
#P OB98/GEN NMR

erre ene a

0 1
  C      -29.033    -182.064     180.475
  O      -29.691    -182.065     179.223
  H      -29.125    -181.068     180.916
  H      -27.972    -182.288     180.343
  H      -29.488    -182.790     181.153
  P      -29.791    -183.439     178.404
  C      -31.024    -184.096     176.245
  O      -30.340    -183.064     176.941
  C      -31.476    -183.607     174.870
  O      -32.654    -182.777     175.035
  C      -30.418    -182.782     174.132
  O      -30.485    -183.099     172.742
  C      -30.872    -181.352     174.351
  O      -30.428    -180.477     173.315
  C      -32.391    -181.509     174.407
  N      -33.338    -176.548     174.407
  C      -32.746    -177.342     173.445
  N      -32.320    -176.724     172.323
  N      -32.585    -178.633     173.571
  C      -33.071    -179.123     174.738
  C      -33.674    -178.441     175.768
  C      -33.835    -177.009     175.621
  O      -34.338    -176.253     176.443
  N      -34.006    -179.287     176.797
  C      -33.600    -180.476     176.390
  N      -33.017    -180.427     175.151
  O      -30.545    -184.537     179.083
  O      -28.269    -183.841     178.132
  H      -30.940    -179.644     173.403
  H      -27.974    -184.524     178.764
  H      -33.429    -175.556     174.261
  H      -33.697    -181.396     176.951
  H      -32.847    -181.513     173.409
  H      -30.480    -180.981     175.306
  H      -32.426    -175.736     172.148
  H      -29.405    -182.954     174.505
  H      -31.904    -177.290     171.592
  H      -31.781    -184.477     174.276
  H      -31.897    -184.390     176.837
  H      -30.361    -184.962     176.137
  P      -29.252    -183.865     172.064
  C      -28.889    -184.735     169.667
  O      -29.341    -183.655     170.476
  O      -29.043    -185.275     172.509
  O      -28.000    -182.944     172.464
  H      -27.205    -183.507     172.535
  H      -28.998    -184.477     168.634
  H      -29.470    -185.608     169.880
  H      -27.859    -184.932     169.879

 6  7  8  9  10  11  12  13  14  15  26  29  33  34 0
 6-311+G(2d,p)
 ****
 36  38  39  40  41 0
 6-311+G(2d,p)
 ****
 1  2  3  4  5  16  17  18  19  20  21  22  23  24  25 0
 3-21G
 ****
 27  28  30  31  32  35  37  42  43  44  45  46  47 0
 3-21G
 ****
 48  49 0
 3-21G
 ****


