%nproc=1
%NoSave
%Mem=1900MB
#P OB98/GEN NMR

erre ene a

0 1
  C       59.740    -215.564      90.055
  O       60.695    -214.964      89.205
  H       58.750    -215.178      89.797
  H       59.946    -215.326      91.101
  H       59.739    -216.648      89.913
  P       62.250    -215.236      89.476
  C       63.162    -215.132      87.069
  O       63.055    -214.465      88.320
  C       61.962    -214.808      86.178
  O       61.773    -213.368      86.164
  C       62.130    -215.281      84.729
  O       60.860    -215.735      84.256
  C       62.542    -214.012      84.013
  O       62.243    -214.074      82.632
  C       61.785    -212.933      84.793
  N       62.419    -211.625      84.637
  C       62.436    -211.089      83.346
  O       61.922    -211.705      82.410
  N       63.089    -209.904      83.126
  C       63.721    -209.329      84.100
  N       64.382    -208.176      83.806
  C       63.754    -209.871      85.473
  C       63.088    -211.008      85.669
  O       62.645    -216.662      89.667
  O       62.564    -214.361      90.780
  H       62.305    -213.174      82.244
  H       62.426    -214.897      91.583
  H       64.301    -209.357      86.248
  H       63.066    -211.486      86.642
  H       60.745    -212.863      84.451
  H       63.624    -213.865      84.117
  H       62.876    -216.074      84.621
  H       61.064    -215.242      86.632
  H       64.352    -207.857      82.845
  H       63.194    -216.209      87.265
  H       64.942    -207.663      84.469
  H       64.091    -214.837      86.571
  P       60.579    -217.302      84.049
  C       58.050    -216.942      83.889
  O       59.198    -217.484      83.245
  O       60.687    -218.126      85.289
  O       61.686    -217.750      82.978
  H       61.921    -218.684      83.131
  H       57.186    -217.112      83.281
  H       58.185    -215.890      84.032
  H       57.916    -217.417      84.839

 6  7  8  9  10  11  12  13  14  15  16  26  30  31  32  33  35 0
 6-311+G(2d,p)
 ****
 37  38 0
 6-311+G(2d,p)
 ****
 1  2  3  4  5  17  18  19  20  21  22  23  24  25 0
 3-21G
 ****
 27  28  29  34  36  39  40  41  42  43  44  45  46 0
 3-21G
 ****


