%nproc=1
%NoSave
%Mem=1900MB
#P OB98/GEN NMR

erre ene a

0 1
  C     -558.535     416.192    -111.540
  O     -557.653     415.423    -110.736
  P     -556.259     416.074    -110.293
  C     -553.927     416.457    -111.394
  O     -555.267     416.011    -111.555
  C     -552.971     415.567    -112.187
  O     -552.790     414.295    -111.489
  C     -553.444     415.241    -113.604
  O     -552.293     415.142    -114.451
  C     -554.069     413.865    -113.442
  O     -554.198     413.157    -114.663
  C     -553.090     413.253    -112.442
  N     -553.622     412.060    -111.780
  C     -552.987     410.849    -112.037
  O     -552.015     410.721    -112.783
  N     -553.551     409.740    -111.451
  C     -554.705     409.721    -110.730
  O     -555.225     408.676    -110.337
  C     -555.336     411.026    -110.489
  C     -554.778     412.121    -111.008
  O     -555.650     414.997    -109.279
  O     -556.370     417.436    -109.665
  H     -553.319     413.133    -115.079
  H     -555.801     415.277    -108.359
  H     -553.099     408.855    -111.615
  H     -556.242     411.043    -109.892
  H     -555.226     413.096    -110.868
  H     -552.148     412.999    -112.934
  H     -555.075     413.968    -113.006
  H     -554.149     415.975    -114.014
  H     -551.987     416.057    -112.216
  H     -553.663     416.413    -110.333
  H     -553.845     417.503    -111.711
  P     -552.371     415.773    -115.928
  C     -553.486     414.925    -118.137
  O     -553.489     414.953    -116.721
  O     -550.991     415.258    -116.552
  O     -552.503     417.270    -115.930
  H     -550.805     414.322    -116.333
  H     -552.463     414.943    -118.530
  H     -554.037     415.782    -118.513
  H     -553.980     414.012    -118.468
  H     -559.416     415.622    -111.749
  H     -558.049     416.448    -112.458
  H     -558.805     417.086    -111.018

 3  4  5  6  7  8  9  10  11  12  13  23  28  29  30  31  32 0
 6-311+G(2d,p)
 ****
 33  34 0
 6-311+G(2d,p)
 ****
 1  2  14  15  16  17  18  19  20  21  22  24  25  26 0
 3-21G
 ****
 27  35  36  37  38  39  40  41  42  43  44  45 0
 3-21G
 ****


