%nproc=1
%NoSave
%Mem=1900MB
#P OB98/GEN NMR

erre ene a

0 1
  C     -303.214     100.276      -8.849
  O     -302.616      99.145      -9.453
  H     -302.599     101.156      -9.058
  H     -303.271     100.137      -7.766
  H     -304.217     100.441      -9.254
  P     -303.419      97.760      -9.364
  C     -304.913      97.173     -11.419
  O     -303.603      97.246     -10.877
  C     -304.841      96.755     -12.893
  O     -303.998      97.708     -13.599
  C     -304.241      95.361     -13.099
  O     -304.912      94.717     -14.188
  C     -302.798      95.658     -13.487
  O     -302.180      94.614     -14.225
  C     -302.977      96.954     -14.290
  N     -301.741      97.730     -14.382
  C     -301.318      98.112     -15.653
  O     -301.952      97.914     -16.695
  N     -300.112      98.762     -15.709
  C     -299.291      99.035     -14.644
  O     -298.211      99.598     -14.764
  C     -299.790      98.592     -13.332
  C     -300.966      97.969     -13.263
  O     -304.900      98.218      -8.954
  O     -302.855      96.741      -8.432
  H     -304.998      98.234      -7.983
  H     -302.750      94.408     -14.995
  H     -299.795      99.050     -16.621
  H     -299.160      98.785     -12.469
  H     -301.351      97.624     -12.308
  H     -303.354      96.730     -15.296
  H     -302.199      95.838     -12.588
  H     -304.298      94.735     -12.208
  H     -305.848      96.821     -13.331
  H     -305.388      98.158     -11.345
  H     -305.503      96.448     -10.849
  P     -305.504      93.249     -13.923
  C     -308.021      93.956     -13.998
  O     -306.963      93.234     -14.604
  O     -305.793      93.298     -12.354
  O     -304.582      92.157     -14.364
  H     -306.116      94.168     -12.049
  H     -308.912      93.837     -14.578
  H     -307.763      94.993     -13.949
  H     -308.187      93.583     -13.009

 6  7  8  9  10  11  12  13  14  15  16  27  31  32  33  34  35 0
 6-311+G(2d,p)
 ****
 36  37 0
 6-311+G(2d,p)
 ****
 1  2  3  4  5  17  18  19  20  21  22  23  24  25 0
 3-21G
 ****
 26  28  29  30  38  39  40  41  42  43  44  45 0
 3-21G
 ****


