%nproc=1
%NoSave
%Mem=1900MB
#P OB98/GEN NMR

erre ene a

0 1
  C     -192.316     155.968     212.064
  O     -192.771     157.086     212.803
  H     -191.801     155.286     212.743
  H     -191.616     156.289     211.287
  H     -193.163     155.445     211.608
  P     -193.577     158.207     211.985
  C     -191.343     159.529     211.804
  O     -192.488     159.016     211.130
  C     -190.107     159.335     210.930
  O     -190.100     157.996     210.383
  C     -190.043     160.267     209.729
  O     -189.612     161.570     210.079
  C     -189.069     159.524     208.832
  O     -187.706     159.803     209.192
  C     -189.403     158.056     209.117
  N     -189.731     154.209     205.775
  C     -188.838     154.479     206.752
  N     -188.830     155.524     207.611
  C     -189.893     156.318     207.403
  C     -190.884     156.167     206.447
  C     -190.780     155.046     205.607
  N     -191.672     154.783     204.593
  N     -191.790     157.205     206.519
  C     -191.359     157.970     207.500
  N     -190.218     157.470     208.069
  O     -194.010     159.242     213.127
  O     -194.752     157.706     211.212
  H     -187.561     159.376     210.059
  H     -194.942     159.082     213.374
  H     -188.019     153.774     206.854
  H     -191.827     158.889     207.834
  H     -188.503     157.434     209.211
  H     -189.200     159.814     207.790
  H     -191.020     160.305     209.231
  H     -189.213     159.450     211.561
  H     -191.212     158.992     212.749
  H     -191.504     160.590     212.016
  H     -191.496     154.001     203.982
  H     -192.393     155.462     204.384
  P     -190.666     162.769     209.921
  C     -189.232     163.856     208.032
  O     -190.501     163.358     208.439
  O     -190.069     163.927     210.854
  O     -192.065     162.418     210.296
  H     -190.797     164.423     211.279
  H     -189.294     164.209     207.024
  H     -188.506     163.073     208.092
  H     -188.942     164.661     208.674

 6  7  8  9  10  11  12  13  14  15  25  28  32  33  34  35 0
 6-311+G(2d,p)
 ****
 36  37  40 0
 6-311+G(2d,p)
 ****
 1  2  3  4  5  16  17  18  19  20  21  22  23  24 0
 3-21G
 ****
 26  27  29  30  31  38  39 41  42  43  44  45  46  47  48 0
 3-21G
 ****


