%nproc=1
%NoSave
%Mem=1900MB
#P OB98/GEN NMR

erre ene a

0 1
  C       43.078     246.661    1039.243
  O       43.999     245.715    1038.709
  P       45.566     246.048    1038.620
  C       45.529     245.660    1041.161
  O       45.983     246.499    1040.102
  C       46.654     245.447    1042.173
  O       47.630     244.537    1041.589
  C       47.459     246.690    1042.556
  O       46.884     247.475    1043.582
  C       48.745     246.058    1043.068
  O       48.533     245.569    1044.411
  C       48.946     244.877    1042.101
  N       53.817     245.454    1040.676
  C       53.255     245.088    1041.849
  N       51.951     244.973    1042.166
  C       51.183     245.251    1041.079
  C       51.615     245.638    1039.826
  C       53.005     245.739    1039.639
  N       53.570     246.095    1038.426
  N       50.536     245.862    1038.989
  C       49.480     245.589    1039.724
  N       49.823     245.211    1040.997
  O       45.935     246.982    1037.521
  O       46.260     244.615    1038.465
  H       49.331     245.078    1044.666
  H       47.173     244.715    1038.146
  H       53.949     244.846    1042.650
  H       48.451     245.660    1039.396
  H       49.340     243.987    1042.604
  H       49.587     246.762    1043.112
  H       47.693     247.303    1041.673
  H       46.243     244.973    1043.065
  H       45.240     244.692    1040.731
  H       54.568     246.029    1038.350
  H       52.971     246.159    1037.618
  H       44.663     246.107    1041.641
  P       47.210     249.051    1043.587
  C       44.831     249.946    1042.957
  O       46.165     249.719    1042.568
  O       48.638     249.380    1043.337
  O       46.685     249.528    1045.019
  H       45.709     249.486    1045.147
  H       44.339     250.545    1042.191
  H       44.790     250.498    1043.900
  H       44.301     249.000    1043.070
  H       42.090     246.252    1039.215
  H       43.109     247.558    1038.660
  H       43.343     246.884    1040.255

 3  4  5  6  7  8  9  10  11  12  22  25  29  30  31  32 0
 6-311+G(2d,p)
 ****
 33  36  37 0
 6-311+G(2d,p)
 ****
 1  2  13  14  15  16  17  18  19  20  21  23  24  26 0
 3-21G
 ****
 27  28  34  35  38  39  40  41  42  43  44  45  46  47  48 0
 3-21G
 ****


