%nproc=1
%NoSave
%Mem=1900MB
#P OB98/GEN NMR

erre ene a

0 1
  C     -217.225    -539.810     239.577
  O     -217.233    -538.415     239.776
  P     -218.475    -537.512     239.317
  C     -218.550    -535.748     241.198
  O     -218.186    -536.022     239.844
  C     -218.001    -534.383     241.623
  O     -216.563    -534.499     241.845
  C     -218.229    -533.284     240.555
  O     -218.874    -532.107     241.051
  C     -216.839    -533.075     239.987
  O     -216.663    -531.831     239.336
  C     -215.957    -533.353     241.207
  N     -214.557    -533.590     240.846
  C     -213.589    -532.907     241.583
  O     -213.830    -532.142     242.511
  N     -212.291    -533.094     241.176
  C     -211.895    -533.760     240.062
  O     -210.721    -533.805     239.703
  C     -212.958    -534.427     239.304
  C     -214.221    -534.340     239.729
  O     -219.817    -538.046     239.691
  O     -218.250    -537.357     237.742
  H     -216.783    -531.130     239.998
  H     -217.413    -536.937     237.488
  H     -211.586    -532.600     241.703
  H     -212.674    -534.962     238.409
  H     -215.035    -534.814     239.189
  H     -215.984    -532.530     241.917
  H     -216.669    -533.853     239.227
  H     -218.899    -533.635     239.768
  H     -218.476    -534.108     242.570
  H     -218.118    -536.520     241.836
  H     -219.640    -535.789     241.303
  P     -220.312    -531.583     240.592
  C     -221.293    -531.237     242.982
  O     -220.904    -530.654     241.758
  O     -221.245    -532.645     240.102
  O     -219.978    -530.538     239.421
  H     -220.727    -530.511     238.789
  H     -222.092    -530.630     243.418
  H     -220.437    -531.249     243.665
  H     -221.661    -532.258     242.844
  H     -216.310    -540.219     239.952
  H     -217.308    -540.022     238.531
  H     -218.051    -540.249     240.096

 3  4  5  6  7  8  9  10  11  12  13  23  28  29  30  31  32 0
 6-311+G(2d,p)
 ****
 33  34 0
 6-311+G(2d,p)
 ****
 1  2  14  15  16  17  18  19  20  21  22  24  25  26  27 0
 3-21G
 ****
 35  36  37  38  39  40  41  42  43  44  45 0
 3-21G
 ****


