%nproc=1
%NoSave
%Mem=1900MB
#P OB98/GEN NMR

erre ene a

0 1
  C      117.746      83.207     143.176
  O      116.585      83.394     143.958
  H      118.273      84.161     143.092
  H      117.473      82.868     142.172
  H      118.409      82.477     143.647
  P      115.686      82.096     144.238
  C      114.062      82.842     142.349
  O      114.880      81.807     142.880
  C      112.705      82.272     141.944
  O      112.884      81.327     140.865
  C      111.996      81.501     143.052
  O      111.357      82.365     143.974
  C      111.024      80.651     142.244
  O      109.836      81.380     141.912
  C      111.826      80.349     140.970
  N      111.342      75.656     139.044
  C      110.678      76.805     138.798
  N      110.882      78.024     139.343
  C      111.899      77.984     140.220
  C      112.661      76.885     140.579
  C      112.352      75.672     139.945
  N      113.003      74.494     140.222
  N      113.582      77.232     141.548
  C      113.385      78.516     141.763
  N      112.383      79.012     140.980
  O      114.562      82.648     145.237
  O      116.416      80.926     144.807
  H      109.213      80.736     141.522
  H      114.830      82.473     146.158
  H      109.875      76.738     138.070
  H      113.932      79.122     142.476
  H      111.213      80.438     140.065
  H      110.717      79.764     142.799
  H      112.703      80.838     143.566
  H      112.077      83.093     141.578
  H      114.550      83.271     141.467
  H      113.942      83.623     143.107
  H      112.713      73.655     139.745
  H      113.685      74.473     140.968
  P      111.016      81.806     145.435
  C      108.446      81.823     145.043
  O      109.599      81.057     145.351
  O      110.697      83.133     146.270
  O      112.103      80.999     146.063
  H      111.468      83.390     146.810
  H      107.588      81.184     145.024
  H      108.569      82.283     144.085
  H      108.311      82.580     145.787

 6  7  8  9  10  11  12  13  14  15  25  28  32  33  34  35 0
 6-311+G(2d,p)
 ****
 36  37  40 0
 6-311+G(2d,p)
 ****
 1  2  3  4  5  16  17  18  19  20  21  22  23  24 0
 3-21G
 ****
 26  27  29  30  31  38  39 41  42  43  44  45  46  47  48 0
 3-21G
 ****


