%nproc=1
%NoSave
%Mem=1900MB
#P OB98/GEN NMR

erre ene a

0 1
  C      -44.328    -388.167    -302.756
  O      -43.046    -388.098    -302.164
  H      -44.449    -389.157    -303.202
  H      -44.427    -387.415    -303.542
  H      -45.108    -388.026    -302.002
  P      -42.614    -386.733    -301.436
  C      -40.810    -386.254    -303.236
  O      -42.019    -385.825    -302.625
  C      -40.881    -386.045    -304.747
  O      -42.075    -386.640    -305.305
  C      -40.940    -384.587    -305.190
  O      -39.706    -383.900    -305.066
  C      -41.354    -384.772    -306.639
  O      -40.224    -385.215    -307.414
  C      -42.415    -385.891    -306.503
  N      -43.778    -385.367    -306.412
  C      -44.395    -385.015    -307.618
  O      -43.801    -385.137    -308.688
  N      -45.668    -384.495    -307.580
  C      -46.264    -384.320    -306.442
  N      -47.519    -383.796    -306.462
  C      -45.640    -384.657    -305.146
  C      -44.414    -385.173    -305.205
  O      -41.733    -386.880    -300.237
  O      -43.997    -385.987    -301.126
  H      -40.098    -386.162    -307.215
  H      -43.785    -385.140    -300.663
  H      -46.164    -384.466    -304.221
  H      -43.887    -385.440    -304.294
  H      -42.359    -386.589    -307.348
  H      -41.726    -383.855    -307.103
  H      -41.740    -384.051    -304.667
  H      -40.022    -386.567    -305.191
  H      -47.918    -383.574    -307.366
  H      -40.662    -387.312    -302.993
  H      -48.024    -383.555    -305.622
  H      -39.967    -385.678    -302.847
  P      -39.659    -382.672    -304.032
  C      -40.074    -381.069    -306.047
  O      -40.436    -381.461    -304.734
  O      -38.128    -382.229    -304.062
  O      -40.141    -382.988    -302.646
  H      -37.640    -382.606    -303.305
  H      -40.691    -380.252    -306.358
  H      -40.210    -381.893    -306.716
  H      -39.048    -380.766    -306.059

 6  7  8  9  10  11  12  13  14  15  16  26  30  31  32  33  35 0
 6-311+G(2d,p)
 ****
 37  38 0
 6-311+G(2d,p)
 ****
 1  2  3  4  5  17  18  19  20  21  22  23  24  25 0
 3-21G
 ****
 27  28  29  34  36  39  40  41  42  43  44  45  46 0
 3-21G
 ****


