%nproc=1
%NoSave
%Mem=1900MB
#P OB98/GEN NMR

erre ene a

0 1
  C      229.119    -403.037     179.696
  O      227.767    -402.633     179.787
  H      229.743    -402.168     179.472
  H      229.428    -403.450     180.660
  H      229.247    -403.800     178.925
  P      227.014    -402.277     178.420
  C      226.019    -404.593     177.796
  O      227.020    -403.618     177.532
  C      225.419    -405.112     176.490
  O      226.499    -405.625     175.659
  C      224.389    -406.238     176.665
  O      223.333    -406.044     175.715
  C      225.169    -407.485     176.294
  O      224.330    -408.539     175.833
  C      226.109    -406.943     175.229
  N      228.625    -409.802     171.863
  C      227.685    -408.846     171.710
  N      227.105    -408.089     172.661
  C      227.633    -408.353     173.865
  C      228.603    -409.293     174.180
  C      229.096    -410.054     173.106
  N      230.005    -411.078     173.263
  N      228.845    -409.304     175.542
  C      228.018    -408.402     176.046
  N      227.263    -407.801     175.069
  O      228.078    -401.333     177.676
  O      225.685    -401.607     178.563
  H      223.813    -408.219     175.071
  H      227.945    -400.409     177.955
  H      227.347    -408.673     170.688
  H      227.904    -408.172     177.093
  H      225.628    -406.854     174.240
  H      225.724    -407.842     177.167
  H      223.965    -406.295     177.676
  H      224.976    -404.262     175.949
  H      225.218    -404.133     178.393
  H      230.221    -411.641     172.451
  H      230.280    -411.350     174.193
  H      226.457    -405.417     178.367
  P      221.878    -406.595     176.096
  C      220.867    -404.379     177.023
  O      221.300    -405.706     177.300
  O      222.190    -408.000     176.793
  O      220.965    -406.751     174.926
  H      221.474    -408.631     176.614
  H      220.512    -403.924     177.924
  H      220.077    -404.405     176.302
  H      221.686    -403.810     176.635

 6  7  8  9  10  11  12  13  14  15  25  28  32  33  34  35 0
 6-311+G(2d,p)
 ****
 36  39  40 0
 6-311+G(2d,p)
 ****
 1  2  3  4  5  16  17  18  19  20  21  22  23  24 0
 3-21G
 ****
 26  27  29  30  31  37  38  41  42  43  44  45  46  47 0
 3-21G
 ****
 48 0
 3-21G
 ****


