%nproc=1
%NoSave
%Mem=1900MB
#P OB98/GEN NMR

erre ene a

0 1
  C       17.351     -70.495     421.463
  O       17.371     -70.050     422.804
  H       16.687     -71.359     421.369
  H       16.973     -69.688     420.827
  H       18.361     -70.764     421.131
  P       18.055     -71.022     423.882
  C       20.526     -70.860     423.081
  O       19.565     -70.488     424.056
  C       21.707     -69.885     423.099
  O       21.285     -68.632     422.495
  C       22.223     -69.573     424.511
  O       23.649     -69.473     424.469
  C       21.618     -68.215     424.815
  O       22.375     -67.492     425.779
  C       21.591     -67.572     423.428
  N       20.665     -62.652     424.448
  C       21.781     -63.402     424.552
  N       21.950     -64.708     424.253
  C       20.808     -65.229     423.753
  C       19.587     -64.590     423.589
  C       19.532     -63.237     423.967
  N       18.388     -62.479     423.899
  N       18.647     -65.469     423.081
  C       19.291     -66.614     422.944
  N       20.596     -66.517     423.346
  O       18.236     -72.381     423.047
  O       17.291     -71.237     425.143
  H       23.307     -67.457     425.477
  H       17.384     -72.858     423.020
  H       22.657     -62.888     424.938
  H       18.856     -67.533     422.575
  H       22.559     -67.130     423.150
  H       20.597     -68.341     425.203
  H       21.936     -70.327     425.240
  H       22.505     -70.288     422.459
  H       20.057     -70.850     422.090
  H       18.426     -61.529     424.249
  H       17.525     -62.908     423.603
  H       20.884     -71.875     423.295
  P       24.482     -70.635     425.200
  C       25.391     -71.526     422.936
  O       25.701     -71.072     424.246
  O       23.484     -71.892     425.139
  O       24.867     -70.307     426.606
  H       23.411     -72.292     426.026
  H       26.295     -71.779     422.423
  H       24.882     -70.751     422.401
  H       24.762     -72.389     422.997

 6  7  8  9  10  11  12  13  14  15  25  28  32  33  34  35 0
 6-311+G(2d,p)
 ****
 36  39  40 0
 6-311+G(2d,p)
 ****
 1  2  3  4  5  16  17  18  19  20  21  22  23  24 0
 3-21G
 ****
 26  27  29  30  31  37  38  41  42  43  44  45  46  47 0
 3-21G
 ****
 48 0
 3-21G
 ****


