%nproc=1
%NoSave
%Mem=1900MB
#P OB98/GEN NMR

erre ene a

0 1
  C      159.030     401.911      16.022
  O      158.980     400.620      16.604
  H      158.746     401.833      14.969
  H      160.043     402.314      16.094
  H      158.324     402.579      16.530
  P      159.324     400.530      18.167
  C      161.882     400.066      17.944
  O      160.858     400.981      18.310
  C      163.213     400.484      18.574
  O      164.180     399.404      18.379
  C      163.823     401.750      17.949
  O      164.594     402.434      18.954
  C      164.770     401.158      16.913
  O      165.702     402.123      16.485
  C      165.323     399.985      17.711
  N      169.847     398.355      16.017
  C      169.511     399.313      16.906
  N      168.275     399.680      17.311
  C      167.337     398.924      16.720
  C      167.529     397.911      15.791
  C      168.862     397.632      15.431
  N      169.208     396.675      14.512
  N      166.314     397.385      15.393
  C      165.408     398.062      16.069
  N      165.983     399.000      16.883
  O      159.366     398.951      18.442
  O      158.376     401.228      19.080
  H      166.314     401.751      15.819
  H      158.492     398.641      18.741
  H      170.340     399.857      17.349
  H      164.338     397.924      16.004
  H      166.038     400.302      18.484
  H      164.223     400.816      16.030
  H      163.078     402.428      17.528
  H      163.086     400.597      19.656
  H      161.971     400.058      16.852
  H      161.612     399.062      18.292
  H      170.184     396.558      14.287
  H      168.482     396.156      14.045
  P      163.953     403.715      19.685
  C      164.240     405.485      17.789
  O      163.352     404.735      18.606
  O      165.260     404.489      20.195
  O      163.051     403.407      20.837
  H      165.135     404.772      21.123
  H      163.676     406.111      17.130
  H      164.846     404.817      17.214
  H      164.867     406.092      18.408

 6  7  8  9  10  11  12  13  14  15  25  28  32  33  34  35 0
 6-311+G(2d,p)
 ****
 36  37  40 0
 6-311+G(2d,p)
 ****
 1  2  3  4  5  16  17  18  19  20  21  22  23  24 0
 3-21G
 ****
 26  27  29  30  31  38  39 41  42  43  44  45  46  47  48 0
 3-21G
 ****


