%nproc=1
%NoSave
%Mem=1900MB
#P OB98/GEN NMR

erre ene a

0 1
  C     -522.669     611.406     276.534
  O     -523.487     612.281     277.316
  P     -523.653     611.969     278.880
  C     -522.540     614.204     279.632
  O     -523.684     613.354     279.684
  C     -522.922     615.645     279.965
  O     -523.680     616.249     278.890
  C     -523.795     615.777     281.198
  O     -523.027     615.757     282.385
  C     -524.403     617.168     280.982
  O     -523.448     618.176     281.378
  C     -524.615     617.193     279.466
  N     -529.571     618.469     279.685
  C     -528.475     619.028     280.232
  N     -527.186     618.626     280.145
  C     -527.092     617.522     279.385
  C     -528.122     616.843     278.762
  C     -529.415     617.353     278.933
  N     -530.536     616.773     278.369
  N     -527.648     615.745     278.076
  C     -526.342     615.775     278.258
  N     -525.958     616.829     279.052
  O     -522.227     611.347     279.275
  O     -524.758     611.016     279.195
  H     -523.855     619.042     281.191
  H     -522.337     610.661     279.961
  H     -528.651     619.922     280.825
  H     -525.630     615.066     277.855
  H     -524.399     618.180     279.031
  H     -525.299     617.328     281.577
  H     -524.602     615.029     281.202
  H     -522.001     616.223     280.103
  H     -522.076     614.150     278.639
  H     -531.430     617.216     278.520
  H     -530.428     615.956     277.785
  H     -521.789     613.825     280.342
  P     -523.392     614.641     283.481
  C     -521.184     613.267     283.285
  O     -521.991     614.135     284.075
  O     -523.897     613.411     282.583
  O     -524.414     615.069     284.485
  H     -524.570     612.895     283.075
  H     -520.171     613.274     283.685
  H     -521.158     613.602     282.248
  H     -521.585     612.246     283.336
  H     -522.657     611.742     275.518
  H     -523.067     610.414     276.576
  H     -521.672     611.408     276.923

 3  4  5  6  7  8  9  10  11  12  22  25  29  30  31  32 0
 6-311+G(2d,p)
 ****
 33  36  37 0
 6-311+G(2d,p)
 ****
 1  2  13  14  15  16  17  18  19  20  21  23  24  26 0
 3-21G
 ****
 27  28  34  35  38  39  40  41  42  43  44  45  46  47  48 0
 3-21G
 ****


