%nproc=1
%NoSave
%Mem=1900MB
#P OB98/GEN NMR

erre ene a

0 1
  C       17.648    -149.922     144.795
  O       16.340    -150.451     144.859
  H       17.647    -149.067     144.113
  H       18.338    -150.676     144.407
  H       17.981    -149.583     145.779
  P       16.022    -151.600     145.930
  C       13.939    -151.966     147.413
  O       14.432    -151.625     146.126
  C       12.451    -151.614     147.536
  O       12.295    -150.177     147.329
  C       11.547    -152.322     146.504
  O       10.262    -152.491     147.120
  C       11.499    -151.277     145.403
  O       10.516    -151.551     144.439
  C       11.333    -150.015     146.262
  N       11.548    -148.753     145.566
  C       10.535    -148.301     144.724
  O        9.470    -148.887     144.530
  N       10.781    -147.115     144.082
  C       11.906    -146.350     144.207
  O       12.057    -145.279     143.631
  C       12.941    -146.883     145.104
  C       12.717    -148.039     145.734
  O       16.814    -151.547     147.194
  O       16.298    -152.955     145.120
  H       17.168    -153.318     145.377
  H        9.650    -151.661     144.887
  H       10.058    -146.768     143.472
  H       13.851    -146.311     145.219
  H       13.459    -148.452     146.410
  H       10.341    -150.008     146.723
  H       12.450    -151.260     144.864
  H       11.934    -153.295     146.191
  H       12.122    -151.827     148.561
  H       14.514    -151.402     148.158
  H       14.089    -153.034     147.584
  P        9.647    -153.924     147.501
  C        7.656    -154.706     148.960
  O        8.180    -153.691     148.112
  O       10.534    -154.755     148.371
  O        9.367    -154.651     146.102
  H        9.398    -155.618     146.225
  H        6.679    -154.423     149.293
  H        8.299    -154.831     149.806
  H        7.595    -155.627     148.419

 6  7  8  9  10  11  12  13  14  15  16  27  31  32  33  34  35 0
 6-311+G(2d,p)
 ****
 36  37 0
 6-311+G(2d,p)
 ****
 1  2  3  4  5  17  18  19  20  21  22  23  24  25 0
 3-21G
 ****
 26  28  29  30  38  39  40  41  42  43  44  45 0
 3-21G
 ****


