%nproc=1
%NoSave
%Mem=1900MB
#P OB98/GEN NMR

erre ene a

0 1
  C     -692.950    -743.465    -353.573
  O     -693.773    -743.696    -352.440
  H     -692.745    -742.399    -353.639
  H     -693.470    -743.784    -354.482
  H     -692.008    -744.005    -353.468
  P     -694.224    -745.213    -352.178
  C     -693.264    -744.969    -349.798
  O     -694.402    -745.302    -350.583
  C     -693.687    -744.374    -348.456
  O     -694.417    -743.149    -348.695
  C     -694.607    -745.302    -347.647
  O     -694.277    -745.192    -346.258
  C     -695.992    -744.734    -347.893
  O     -696.898    -745.038    -346.833
  C     -695.694    -743.244    -348.046
  N     -700.324    -741.106    -347.838
  C     -699.503    -741.563    -346.878
  N     -698.266    -742.100    -347.014
  C     -697.895    -742.104    -348.308
  C     -698.632    -741.663    -349.393
  C     -699.905    -741.144    -349.130
  N     -700.769    -740.695    -350.095
  N     -697.914    -741.862    -350.569
  C     -696.778    -742.395    -350.191
  N     -696.719    -742.579    -348.835
  O     -693.360    -746.264    -352.783
  O     -695.747    -745.188    -352.688
  H     -696.567    -744.608    -346.010
  H     -696.207    -744.396    -352.383
  H     -699.874    -741.500    -345.848
  H     -695.957    -742.680    -350.856
  H     -695.630    -742.719    -347.091
  H     -696.402    -745.144    -348.815
  H     -694.542    -746.348    -347.965
  H     -692.794    -744.105    -347.887
  H     -692.632    -744.247    -350.329
  H     -701.660    -740.333    -349.810
  H     -700.469    -740.706    -351.066
  H     -692.687    -745.883    -349.640
  P     -693.381    -746.331    -345.589
  C     -691.975    -744.383    -344.630
  O     -692.515    -745.679    -344.405
  O     -692.618    -747.200    -346.533
  O     -694.465    -747.194    -344.782
  H     -694.222    -748.141    -344.839
  H     -691.425    -744.071    -343.767
  H     -692.771    -743.692    -344.814
  H     -691.323    -744.411    -345.478

 6  7  8  9  10  11  12  13  14  15  25  28  32  33  34  35 0
 6-311+G(2d,p)
 ****
 36  39  40 0
 6-311+G(2d,p)
 ****
 1  2  3  4  5  16  17  18  19  20  21  22  23  24 0
 3-21G
 ****
 26  27  29  30  31  37  38  41  42  43  44  45  46  47 0
 3-21G
 ****
 48 0
 3-21G
 ****


