%nproc=1
%NoSave
%Mem=1900MB
#P OB98/GEN NMR

erre ene a

0 1
  C      154.243      37.165      45.845
  O      153.660      36.497      44.746
  P      154.398      36.309      43.342
  C      155.572      37.893      41.649
  O      154.604      37.762      42.684
  C      155.265      39.048      40.685
  O      154.153      38.688      39.841
  C      154.828      40.288      41.471
  O      155.794      41.157      42.027
  C      153.785      40.966      40.591
  O      154.328      42.047      39.831
  C      153.317      39.843      39.664
  N      148.453      41.244      39.374
  C      149.563      41.829      38.796
  N      149.365      43.040      38.233
  N      150.752      41.284      38.797
  C      150.811      40.118      39.483
  C      149.780      39.435      40.084
  C      148.464      40.027      40.040
  O      147.472      39.581      40.612
  N      150.224      38.321      40.750
  C      151.531      38.351      40.588
  N      151.938      39.444      39.860
  O      153.917      35.192      42.474
  O      155.896      35.939      43.819
  H      154.647      42.723      40.457
  H      156.263      35.310      43.168
  H      147.578      41.749      39.411
  H      152.225      37.629      41.001
  H      153.417      40.142      38.614
  H      152.981      41.393      41.203
  H      148.501      43.551      38.341
  H      154.266      39.926      42.342
  H      150.182      43.571      37.953
  H      156.106      39.230      40.010
  H      155.607      36.940      41.111
  H      156.560      38.047      42.091
  P      155.683      41.933      43.422
  C      153.965      43.477      44.519
  O      154.527      43.033      43.297
  O      157.014      42.821      43.486
  O      155.587      41.053      44.625
  H      157.213      43.048      44.414
  H      153.013      43.972      44.314
  H      154.643      44.194      44.994
  H      153.791      42.639      45.198
  H      153.559      37.162      46.668
  H      154.467      38.175      45.571
  H      155.145      36.664      46.129

 3  4  5  6  7  8  9  10  11  12  23  26  30  31 0
 6-311+G(2d,p)
 ****
 33  35  36  37  38 0
 6-311+G(2d,p)
 ****
 1  2  13  14  15  16  17  18  19  20  21  22  24  25 0
 3-21G
 ****
 27  28  29  32  34  39  40  41  42  43  44  45  46  47  48  49 0
 3-21G
 ****


