%nproc=1
%NoSave
%Mem=1900MB
#P OB98/GEN NMR

erre ene a

0 1
  C      -95.107      83.293      18.648
  O      -96.399      83.816      18.346
  P      -97.648      83.315      19.217
  C      -99.210      81.263      19.302
  O      -98.000      81.809      18.788
  C      -99.439      79.844      18.754
  O      -99.970      79.943      17.405
  C      -98.176      78.984      18.639
  O      -97.789      78.198      19.763
  C      -98.581      78.003      17.542
  O      -99.346      76.924      18.111
  C      -99.474      78.834      16.625
  N      -98.707      78.107      11.620
  C      -99.467      77.450      12.522
  N      -99.615      77.707      13.837
  C      -98.888      78.776      14.199
  C      -98.069      79.546      13.391
  C      -97.987      79.174      12.039
  N      -97.204      79.836      11.122
  N      -97.475      80.555      14.119
  C      -97.914      80.384      15.350
  N      -98.781      79.330      15.448
  O      -98.808      84.249      19.292
  O      -96.994      83.107      20.668
  H     -100.178      77.316      18.437
  H      -97.640      83.380      21.348
  H     -100.029      76.603      12.137
  H      -97.633      80.994      16.196
  H     -100.344      78.273      16.268
  H      -97.717      77.548      17.049
  H      -97.323      79.585      18.302
  H     -100.184      79.334      19.377
  H     -100.049      81.904      19.023
  H      -97.167      79.478      10.181
  H      -96.616      80.598      11.429
  H      -99.144      81.285      20.390
  P      -96.291      78.228      20.328
  C      -94.172      76.794      19.783
  O      -95.460      77.222      19.399
  O      -96.160      77.975      21.790
  O      -95.771      79.665      19.855
  H      -95.660      79.756      18.895
  H      -93.873      75.962      19.141
  H      -94.168      76.457      20.822
  H      -93.458      77.613      19.655
  H      -94.385      83.721      17.984
  H      -95.116      82.230      18.528
  H      -94.851      83.536      19.658

 3  4  5  6  7  8  9  10  11  12  22  25  29  30  31  32 0
 6-311+G(2d,p)
 ****
 33  36  37 0
 6-311+G(2d,p)
 ****
 1  2  13  14  15  16  17  18  19  20  21  23  24  26 0
 3-21G
 ****
 27  28  34  35  38  39  40  41  42  43  44  45  46  47  48 0
 3-21G
 ****


