%nproc=1
%NoSave
%Mem=1900MB
#P OB98/GEN NMR

erre ene a

0 1
  C      834.883    -637.046    -658.371
  O      835.626    -638.228    -658.593
  P      835.008    -639.504    -659.369
  C      836.715    -639.542    -661.315
  O      836.188    -640.240    -660.179
  C      838.229    -639.783    -661.489
  O      838.987    -638.954    -660.589
  C      838.657    -641.233    -661.196
  O      838.354    -642.076    -662.280
  C      840.151    -641.031    -660.921
  O      840.873    -640.936    -662.141
  C      840.158    -639.673    -660.196
  N      843.107    -640.797    -656.154
  C      843.372    -640.712    -657.481
  N      842.550    -640.405    -658.488
  C      841.314    -640.162    -658.018
  C      840.888    -640.200    -656.709
  C      841.853    -640.538    -655.733
  N      841.576    -640.635    -654.390
  N      839.536    -639.897    -656.609
  C      839.148    -639.664    -657.855
  N      840.197    -639.809    -658.739
  O      833.801    -639.180    -660.213
  O      834.642    -640.557    -658.222
  H      841.802    -640.705    -661.925
  H      833.884    -641.114    -658.517
  H      844.414    -640.917    -657.770
  H      838.159    -639.391    -658.150
  H      841.018    -639.058    -660.474
  H      840.583    -641.854    -660.337
  H      838.158    -641.594    -660.281
  H      838.487    -639.498    -662.523
  H      836.543    -638.464    -661.175
  H      842.318    -640.919    -653.776
  H      840.619    -640.493    -654.069
  H      836.183    -639.882    -662.202
  P      838.421    -643.676    -662.110
  C      836.159    -644.057    -663.307
  O      837.560    -644.293    -663.322
  O      838.079    -644.187    -660.740
  O      839.929    -644.052    -662.510
  H      840.192    -644.844    -662.018
  H      835.678    -644.735    -662.587
  H      835.752    -644.233    -664.310
  H      835.954    -643.011    -663.013
  H      835.487    -636.339    -657.842
  H      834.013    -637.275    -657.792
  H      834.586    -636.629    -659.311

 3  4  5  6  7  8  9  10  11  12  22  25  29  30  31  32 0
 6-311+G(2d,p)
 ****
 33  36  37 0
 6-311+G(2d,p)
 ****
 1  2  13  14  15  16  17  18  19  20  21  23  24  26 0
 3-21G
 ****
 27  28  34  35  38  39  40  41  42  43  44  45  46  47  48 0
 3-21G
 ****


