%nproc=1
%NoSave
%Mem=1900MB
#P OB98/GEN NMR

erre ene a

0 1
  C      147.843     530.013    -669.173
  O      148.133     530.018    -670.557
  H      146.777     529.809    -669.016
  H      148.424     529.221    -668.693
  H      148.107     530.973    -668.726
  P      147.347     531.086    -671.459
  C      149.437     531.761    -672.836
  O      148.134     531.190    -672.859
  C      150.014     531.795    -674.248
  O      150.029     530.444    -674.771
  C      149.232     532.678    -675.239
  O      150.095     533.682    -675.791
  C      148.824     531.733    -676.351
  O      148.939     532.309    -677.651
  C      149.769     530.544    -676.178
  N      149.356     527.565    -680.292
  C      150.275     528.488    -679.945
  N      150.390     529.173    -678.786
  C      149.431     528.801    -677.913
  C      148.436     527.860    -678.123
  C      148.405     527.240    -679.384
  N      147.428     526.341    -679.754
  N      147.626     527.759    -677.006
  C      148.098     528.655    -676.159
  N      149.180     529.325    -676.681
  O      147.666     532.483    -670.741
  O      145.879     530.854    -671.578
  H      148.553     533.201    -677.600
  H      146.844     532.988    -670.621
  H      151.022     528.721    -680.703
  H      147.673     528.899    -675.194
  H      150.728     530.704    -676.690
  H      147.779     531.433    -676.198
  H      148.354     533.152    -674.782
  H      151.059     532.129    -674.185
  H      150.087     531.158    -672.198
  H      147.421     526.033    -680.713
  H      146.661     526.176    -679.117
  H      149.376     532.772    -672.412
  P      149.844     535.198    -675.305
  C      152.325     535.982    -675.364
  O      151.019     536.100    -675.915
  O      150.202     535.135    -673.743
  O      148.453     535.688    -675.540
  H      149.712     535.822    -673.254
  H      152.990     536.645    -675.877
  H      152.670     534.975    -675.475
  H      152.298     536.237    -674.325

 6  7  8  9  10  11  12  13  14  15  25  28  32  33  34  35 0
 6-311+G(2d,p)
 ****
 36  39  40 0
 6-311+G(2d,p)
 ****
 1  2  3  4  5  16  17  18  19  20  21  22  23  24 0
 3-21G
 ****
 26  27  29  30  31  37  38  41  42  43  44  45  46  47  48 0
 3-21G
 ****


