%nproc=1
%NoSave
%Mem=1900MB
#P OB98/GEN NMR

erre ene a

0 1
  C      484.841     260.787    1405.464
  O      484.127     259.618    1405.141
  H      484.199     261.416    1406.099
  H      485.092     261.352    1404.570
  H      485.750     260.539    1406.024
  P      484.796     258.576    1404.115
  C      485.548     257.064    1406.086
  O      485.948     257.798    1404.932
  C      486.762     256.707    1406.941
  O      487.416     257.935    1407.388
  C      486.409     255.908    1408.232
  O      487.521     255.072    1408.530
  C      486.268     257.041    1409.251
  O      486.265     256.525    1410.562
  C      487.439     257.930    1408.823
  N      487.336     259.270    1409.381
  C      488.337     259.636    1410.280
  O      489.232     258.862    1410.590
  N      488.294     260.892    1410.850
  C      487.288     261.674    1410.586
  N      487.301     262.904    1411.197
  C      486.181     261.312    1409.685
  C      486.260     260.104    1409.102
  O      485.242     259.158    1402.797
  O      483.680     257.453    1403.901
  H      485.379     256.109    1410.764
  H      483.263     257.566    1403.023
  H      485.361     262.002    1409.519
  H      485.498     259.738    1408.433
  H      488.406     257.487    1409.131
  H      485.326     257.555    1409.101
  H      485.493     255.306    1408.112
  H      487.502     256.147    1406.332
  H      488.042     263.104    1411.819
  H      485.055     256.150    1405.740
  H      486.557     263.587    1411.079
  H      484.831     257.650    1406.687
  P      487.789     253.662    1407.803
  C      489.874     254.588    1406.550
  O      488.607     253.921    1406.421
  O      486.561     252.817    1407.634
  O      488.870     252.907    1408.719
  H      488.728     251.935    1408.650
  H      490.317     254.703    1405.583
  H      490.522     254.006    1407.172
  H      489.727     255.552    1406.991

 6  7  8  9  10  11  12  13  14  15  16  26  30  31  32  33  35 0
 6-311+G(2d,p)
 ****
 37  38 0
 6-311+G(2d,p)
 ****
 1  2  3  4  5  17  18  19  20  21  22  23  24  25 0
 3-21G
 ****
 27  28  29  34  36  39  40  41  42  43  44  45  46 0
 3-21G
 ****


