%nproc=1
%NoSave
%Mem=1900MB
#P OB98/GEN NMR

erre ene a

0 1
  C      445.841     825.811     -52.556
  O      444.688     825.426     -53.331
  P      443.236     825.639     -52.690
  C      442.788     828.180     -52.857
  O      442.537     826.894     -53.412
  C      441.882     829.238     -53.511
  O      441.883     830.433     -52.687
  C      442.341     829.695     -54.906
  O      441.855     828.970     -56.035
  C      441.705     831.086     -54.980
  O      440.324     830.972     -55.389
  C      441.768     831.582     -53.537
  N      443.135     836.472     -52.833
  C      441.921     835.888     -53.030
  N      441.656     834.579     -53.222
  C      442.781     833.852     -53.148
  C      444.077     834.317     -52.959
  C      444.231     835.691     -52.795
  N      445.458     836.289     -52.604
  N      444.960     833.247     -52.975
  C      444.222     832.182     -53.182
  N      442.896     832.482     -53.298
  O      443.163     825.643     -51.201
  O      442.413     824.403     -53.306
  H      440.288     830.214     -56.018
  H      441.789     824.065     -52.621
  H      441.071     836.568     -53.067
  H      444.605     831.172     -53.280
  H      440.858     832.132     -53.243
  H      442.202     831.729     -55.719
  H      443.431     829.783     -54.951
  H      440.856     828.857     -53.560
  H      443.846     828.454     -53.004
  H      445.499     837.284     -52.549
  H      446.303     835.724     -52.626
  H      442.619     828.100     -51.770
  P      442.862     828.519     -57.214
  C      443.579     826.012     -57.090
  O      442.596     826.946     -57.432
  O      444.296     828.874     -57.008
  O      442.200     829.184     -58.506
  H      441.341     828.804     -58.760
  H      443.122     824.998     -57.102
  H      443.976     826.203     -56.098
  H      444.389     826.044     -57.818
  H      446.730     825.609     -53.115
  H      445.859     825.254     -51.643
  H      445.789     826.857     -52.335

 3  4  5  6  7  8  9  10  11  12  22  25  29  30  31  32 0
 6-311+G(2d,p)
 ****
 33  36  37 0
 6-311+G(2d,p)
 ****
 1  2  13  14  15  16  17  18  19  20  21  23  24  26 0
 3-21G
 ****
 27  28  34  35  38  39  40  41  42  43  44  45  46  47  48 0
 3-21G
 ****


