%nproc=1
%NoSave
%Mem=1900MB
#P OB98/GEN NMR

erre ene a

0 1
  C      314.044     321.160     219.293
  O      313.649     321.107     217.928
  P      312.204     320.485     217.599
  C      311.158     318.103     217.661
  O      312.329     318.900     217.836
  C      311.513     316.623     217.538
  O      312.074     316.376     216.226
  C      312.516     316.126     218.585
  O      312.141     314.799     218.954
  C      313.822     316.080     217.825
  O      314.740     315.157     218.409
  C      313.338     315.709     216.412
  N      314.301     316.085     215.381
  C      315.338     315.179     215.124
  O      315.453     314.162     215.811
  N      316.244     315.475     214.137
  C      316.188     316.620     213.534
  N      317.100     316.862     212.558
  C      315.178     317.658     213.858
  C      314.268     317.313     214.767
  O      312.114     320.614     216.006
  O      311.067     321.160     218.288
  H      314.890     315.420     219.341
  H      311.195     320.760     215.721
  H      315.201     318.607     213.353
  H      313.479     317.996     215.058
  H      313.155     314.625     216.340
  H      314.292     317.072     217.815
  H      312.545     316.761     219.476
  H      310.578     316.041     217.601
  H      317.788     316.148     212.362
  H      310.657     318.415     216.742
  H      317.134     317.731     212.041
  H      310.479     318.272     218.498
  P      312.230     314.404     220.506
  C      314.160     313.956     222.140
  O      313.800     314.376     220.841
  O      311.886     312.833     220.454
  O      311.344     315.120     221.467
  H      311.847     312.476     221.361
  H      315.248     313.854     222.184
  H      313.703     312.992     222.376
  H      313.851     314.711     222.873
  H      315.020     321.594     219.365
  H      314.063     320.170     219.698
  H      313.347     321.757     219.843

 3  4  5  6  7  8  9  10  11  12  13  21  23  27  28  29  30  32 0
 6-311+G(2d,p)
 ****
 34  35 0
 6-311+G(2d,p)
 ****
 1  2  14  15  16  17  18  19  20  22  24  25  26 0
 3-21G
 ****
 31  33  36  37  38  39  40  41  42  43  44  45  46 0
 3-21G
 ****


