%nproc=1
%NoSave
%Mem=1900MB
#P OB98/GEN NMR

erre ene a

0 1
  C     -436.378    -518.278    -981.347
  O     -437.537    -518.429    -982.149
  H     -436.078    -517.229    -981.318
  H     -436.600    -518.609    -980.333
  H     -435.562    -518.889    -981.746
  P     -437.418    -518.015    -983.702
  C     -436.598    -520.203    -984.835
  O     -437.691    -519.355    -984.539
  C     -437.024    -521.665    -984.733
  O     -437.206    -522.049    -983.357
  C     -438.363    -521.972    -985.433
  O     -438.214    -522.135    -986.818
  C     -438.722    -523.287    -984.736
  O     -437.956    -524.362    -985.305
  C     -438.289    -523.022    -983.287
  N     -440.951    -523.649    -978.955
  C     -439.963    -524.371    -979.532
  N     -439.307    -524.145    -980.685
  C     -439.772    -523.028    -981.264
  C     -440.769    -522.180    -980.806
  C     -441.380    -522.534    -979.591
  N     -442.386    -521.814    -979.004
  N     -440.999    -521.148    -981.701
  C     -440.109    -521.347    -982.662
  N     -439.357    -522.481    -982.457
  O     -435.841    -517.775    -983.898
  O     -438.233    -516.834    -984.106
  H     -438.269    -525.187    -984.883
  H     -435.690    -517.219    -984.684
  H     -439.652    -525.286    -978.982
  H     -439.985    -520.704    -983.535
  H     -437.902    -523.911    -982.799
  H     -439.789    -523.535    -984.860
  H     -439.118    -521.203    -985.191
  H     -436.217    -522.293    -985.158
  H     -435.788    -520.029    -984.115
  H     -442.870    -522.236    -978.234
  H     -442.821    -521.062    -979.544
  H     -436.215    -519.982    -985.845
  P     -439.389    -521.576    -987.759
  C     -438.002    -519.492    -988.459
  O     -438.666    -520.664    -988.875
  O     -440.130    -520.488    -986.838
  O     -440.320    -522.610    -988.288
  H     -441.059    -520.374    -987.084
  H     -437.577    -519.002    -989.310
  H     -437.224    -519.748    -987.770
  H     -438.700    -518.837    -987.981

 6  7  8  9  10  11  12  13  14  15  25  28  32  33  34  35 0
 6-311+G(2d,p)
 ****
 36  39  40 0
 6-311+G(2d,p)
 ****
 1  2  3  4  5  16  17  18  19  20  21  22  23  24 0
 3-21G
 ****
 26  27  29  30  31  37  38  41  42  43  44  45  46  47 0
 3-21G
 ****
 48 0
 3-21G
 ****


