%nproc=1
%NoSave
%Mem=1900MB
#P OB98/GEN NMR

erre ene a

0 1
  C       81.333      -7.493     452.291
  O       82.337      -7.909     451.359
  P       82.382      -9.336     450.652
  C       84.872      -9.908     451.255
  O       83.901      -9.655     450.254
  C       86.326      -9.808     450.736
  O       86.798      -8.444     450.869
  C       87.259     -10.675     451.579
  O       87.381     -12.068     451.310
  C       88.587      -9.926     451.570
  O       89.478     -10.382     450.556
  C       88.173      -8.472     451.311
  N       91.321      -5.534     454.083
  C       91.601      -6.304     452.971
  N       92.881      -6.351     452.567
  N       90.689      -6.998     452.319
  C       89.461      -6.931     452.882
  C       89.062      -6.230     453.993
  C       90.058      -5.413     454.673
  O       89.861      -4.708     455.650
  N       87.738      -6.422     454.273
  C       87.328      -7.280     453.345
  N       88.346      -7.620     452.471
  O       81.342      -9.579     449.607
  O       82.100     -10.362     451.867
  H       90.220      -9.754     450.494
  H       81.603     -11.121     451.490
  H       92.048      -5.003     454.531
  H       86.331      -7.674     453.272
  H       88.770      -8.027     450.504
  H       89.112     -10.069     452.529
  H       93.636      -5.945     453.094
  H       86.894     -10.617     452.612
  H       93.130      -7.079     451.897
  H       86.365     -10.045     449.659
  H       84.681     -10.907     451.644
  H       84.742      -9.212     452.090
  P       87.591     -13.217     452.397
  C       89.373     -14.383     450.972
  O       88.129     -14.526     451.643
  O       86.089     -13.640     452.801
  O       88.365     -12.818     453.612
  H       86.086     -14.146     453.638
  H       89.478     -15.219     450.252
  H       90.192     -14.430     451.693
  H       89.419     -13.431     450.431
  H       81.538      -6.493     452.613
  H       81.338      -8.148     453.137
  H       80.373      -7.526     451.820

 3  4  5  6  7  8  9  10  11  12  23  26  30  31 0
 6-311+G(2d,p)
 ****
 33  35  36  37  38 0
 6-311+G(2d,p)
 ****
 1  2  13  14  15  16  17  18  19  20  21  22  24  25 0
 3-21G
 ****
 27  28  29  32  34  39  40  41  42  43  44  45  46  47  48  49 0
 3-21G
 ****


