%nproc=1
%NoSave
%Mem=1900MB
#P OB98/GEN NMR

erre ene a

0 1
  C      616.980    -530.483      45.347
  O      617.932    -530.568      44.304
  H      617.293    -531.136      46.162
  H      616.000    -530.803      44.990
  H      616.925    -529.456      45.718
  P      617.611    -529.757      42.960
  C      615.772    -529.880      41.122
  O      616.214    -530.317      42.402
  C      614.848    -530.924      40.518
  O      613.571    -530.909      41.205
  C      614.517    -530.685      39.047
  O      615.550    -531.107      38.177
  C      613.258    -531.528      38.893
  O      613.570    -532.903      38.634
  C      612.576    -531.366      40.267
  N      611.436    -530.456      40.195
  C      610.337    -530.913      39.472
  O      610.305    -532.016      38.928
  N      609.281    -530.050      39.369
  C      609.241    -528.774      39.860
  O      608.284    -528.031      39.685
  C      610.434    -528.332      40.599
  C      611.463    -529.175      40.729
  O      618.696    -530.327      41.925
  O      617.688    -528.275      43.085
  H      619.384    -529.660      41.771
  H      614.231    -533.164      39.306
  H      608.476    -530.368      38.859
  H      610.436    -527.331      40.999
  H      612.359    -528.876      41.257
  H      612.217    -532.330      40.635
  H      612.646    -531.174      38.071
  H      614.257    -529.632      38.883
  H      615.301    -531.917      40.655
  H      616.636    -529.742      40.461
  H      615.263    -528.913      41.237
  P      615.583    -530.479      36.699
  C      613.635    -530.238      34.945
  O      614.240    -530.989      35.982
  O      616.754    -531.346      36.039
  O      615.804    -529.006      36.691
  H      616.836    -532.227      36.458
  H      612.757    -530.745      34.603
  H      614.324    -530.131      34.134
  H      613.367    -529.271      35.315

 6  7  8  9  10  11  12  13  14  15  16  27  31  32  33  34  35 0
 6-311+G(2d,p)
 ****
 36  37 0
 6-311+G(2d,p)
 ****
 1  2  3  4  5  17  18  19  20  21  22  23  24  25 0
 3-21G
 ****
 26  28  29  30  38  39  40  41  42  43  44  45 0
 3-21G
 ****


