%nproc=1
%NoSave
%Mem=1900MB
#P OB98/GEN NMR

erre ene a

0 1
  C     -227.417      71.235     249.470
  O     -227.992      69.955     249.636
  H     -228.219      71.959     249.299
  H     -226.745      71.248     248.609
  H     -226.872      71.527     250.374
  P     -227.015      68.694     249.789
  C     -225.715      67.149     248.175
  O     -226.582      68.267     248.307
  C     -225.398      66.879     246.695
  O     -226.582      66.326     246.055
  C     -224.996      68.138     245.908
  O     -224.102      67.724     244.865
  C     -226.331      68.564     245.327
  O     -226.170      69.508     244.296
  C     -226.920      67.197     244.953
  N     -228.354      67.253     244.716
  C     -228.760      67.754     243.477
  O     -227.920      68.131     242.656
  N     -230.101      67.842     243.206
  C     -230.963      67.525     244.120
  N     -232.278      67.650     243.793
  C     -230.579      67.046     245.465
  C     -229.272      66.932     245.691
  O     -227.524      67.577     250.639
  O     -225.670      69.320     250.394
  H     -225.798      69.086     243.490
  H     -225.599      69.098     251.341
  H     -231.337      66.815     246.199
  H     -228.891      66.590     246.650
  H     -226.432      66.798     244.054
  H     -226.949      69.042     246.093
  H     -224.525      68.901     246.531
  H     -224.619      66.111     246.638
  H     -232.498      67.993     242.864
  H     -226.223      66.284     248.608
  H     -233.038      67.452     244.428
  H     -224.783      67.325     248.723
  P     -222.507      67.737     245.034
  C     -220.530      69.349     244.630
  O     -221.947      69.197     244.681
  O     -221.813      66.626     244.310
  O     -222.254      67.611     246.613
  H     -221.411      67.142     246.764
  H     -220.289      70.363     244.386
  H     -220.128      68.697     243.883
  H     -220.110      69.101     245.583

 6  7  8  9  10  11  12  13  14  15  16  26  30  31  32  33  35 0
 6-311+G(2d,p)
 ****
 37  38 0
 6-311+G(2d,p)
 ****
 1  2  3  4  5  17  18  19  20  21  22  23  24  25 0
 3-21G
 ****
 27  28  29  34  36  39  40  41  42  43  44  45  46 0
 3-21G
 ****


