%nproc=1
%NoSave
%Mem=1900MB
#P OB98/GEN NMR

erre ene a

0 1
  C      219.995     -84.483      55.661
  O      220.132     -85.428      54.616
  H      219.821     -83.495      55.224
  H      220.907     -84.440      56.263
  H      219.143     -84.737      56.297
  P      220.401     -86.958      55.009
  C      218.144     -88.132      55.456
  O      219.217     -87.371      56.003
  C      218.051     -89.483      56.159
  O      219.196     -90.299      55.839
  C      218.001     -89.391      57.684
  O      216.688     -89.081      58.120
  C      218.446     -90.794      58.062
  O      217.355     -91.716      57.867
  C      219.556     -91.055      57.025
  N      223.319     -91.896      60.319
  C      222.064     -92.476      60.232
  N      221.759     -93.376      61.192
  N      221.185     -92.184      59.307
  C      221.609     -91.214      58.463
  C      222.816     -90.558      58.459
  C      223.801     -90.929      59.445
  O      224.925     -90.449      59.545
  N      222.851     -89.586      57.481
  C      221.684     -89.688      56.883
  N      220.886     -90.651      57.442
  O      221.769     -87.278      55.530
  O      220.060     -87.767      53.672
  H      216.830     -91.378      57.118
  H      220.856     -87.900      53.129
  H      223.941     -92.152      61.062
  H      221.369     -89.091      56.027
  H      219.612     -92.110      56.735
  H      218.765     -90.880      59.099
  H      222.272     -93.423      62.063
  H      218.741     -88.678      58.072
  H      220.831     -93.778      61.178
  H      217.167     -90.004      55.769
  H      218.344     -88.266      54.392
  H      217.198     -87.590      55.575
  P      216.403     -88.619      59.636
  C      217.262     -86.192      59.384
  O      217.498     -87.483      59.925
  O      216.371     -89.725      60.631
  O      215.051     -87.777      59.545
  H      214.234     -88.332      59.647
  H      218.067     -85.540      59.653
  H      216.344     -85.805      59.773
  H      217.198     -86.258      58.318

 6  7  8  9  10  11  12  13  14  15  26  29  33  34 0
 6-311+G(2d,p)
 ****
 36  38  39  40  41 0
 6-311+G(2d,p)
 ****
 1  2  3  4  5  16  17  18  19  20  21  22  23  24  25 0
 3-21G
 ****
 27  28  30  31  32  35  37  42  43  44  45  46  47 0
 3-21G
 ****
 48  49 0
 3-21G
 ****


