%nproc=1
%NoSave
%Mem=1900MB
#P OB98/GEN NMR

erre ene a

0 1
  C       18.794    -398.344    -209.874
  O       19.493    -398.224    -211.097
  H       19.115    -397.542    -209.204
  H       19.018    -399.305    -209.406
  H       17.717    -398.256    -210.040
  P       19.089    -399.237    -212.271
  C       20.925    -400.948    -211.572
  O       20.404    -400.108    -212.587
  C       22.158    -401.687    -212.093
  O       21.720    -402.740    -212.993
  C       23.120    -400.786    -212.874
  O       24.465    -401.194    -212.605
  C       22.774    -401.080    -214.323
  O       23.827    -400.795    -215.234
  C       22.424    -402.571    -214.241
  N       21.604    -403.017    -215.364
  C       22.232    -403.174    -216.595
  O       23.440    -403.036    -216.788
  N       21.408    -403.503    -217.643
  C       20.056    -403.662    -217.584
  O       19.370    -403.937    -218.564
  C       19.448    -403.475    -216.260
  C       20.235    -403.165    -215.227
  O       18.964    -398.287    -213.552
  O       17.858    -400.046    -212.033
  H       18.051    -397.956    -213.642
  H       24.055    -399.844    -215.142
  H       21.850    -403.621    -218.542
  H       18.375    -403.588    -216.175
  H       19.819    -403.009    -214.239
  H       23.338    -403.176    -214.189
  H       21.900    -400.494    -214.625
  H       23.001    -399.728    -212.635
  H       22.666    -402.172    -211.250
  H       20.163    -401.679    -211.284
  H       21.188    -400.342    -210.696
  P       25.323    -400.288    -211.593
  C       27.484    -400.306    -213.061
  O       26.859    -400.681    -211.847
  O       24.967    -400.962    -210.188
  O       25.004    -398.833    -211.701
  H       24.870    -401.928    -210.232
  H       28.498    -400.647    -213.060
  H       27.466    -399.240    -213.157
  H       26.960    -400.747    -213.883

 6  7  8  9  10  11  12  13  14  15  16  27  31  32  33  34  35 0
 6-311+G(2d,p)
 ****
 36  37 0
 6-311+G(2d,p)
 ****
 1  2  3  4  5  17  18  19  20  21  22  23  24  25 0
 3-21G
 ****
 26  28  29  30  38  39  40  41  42  43  44  45 0
 3-21G
 ****


