%nproc=1
%NoSave
%Mem=1900MB
#P OB98/GEN NMR

erre ene a

0 1
  C       86.003    -104.275     -59.976
  O       87.261    -104.814     -60.333
  H       86.137    -103.375     -59.370
  H       85.463    -104.010     -60.888
  H       85.417    -105.015     -59.421
  P       88.201    -105.298     -59.126
  C       89.447    -103.023     -59.175
  O       88.719    -103.964     -58.401
  C       90.944    -103.189     -58.934
  O       91.680    -102.182     -59.658
  C       91.374    -103.045     -57.477
  O       91.136    -104.232     -56.736
  C       92.863    -102.783     -57.647
  O       93.550    -104.024     -57.895
  C       92.892    -101.905     -58.907
  N       95.912     -97.778     -58.760
  C       96.136     -99.045     -59.167
  N       95.276    -100.085     -59.196
  C       94.064     -99.707     -58.761
  C       93.675     -98.447     -58.335
  C       94.665     -97.450     -58.338
  N       94.439     -96.171     -57.854
  N       92.349     -98.449     -57.948
  C       91.952     -99.692     -58.120
  N       92.949    -100.486     -58.616
  O       89.500    -105.848     -59.888
  O       87.605    -106.332     -58.231
  H       94.484    -103.799     -58.064
  H       89.432    -106.817     -59.977
  H       97.143     -99.257     -59.512
  H       90.959    -100.060     -57.897
  H       93.738    -102.147     -59.560
  H       93.323    -102.329     -56.764
  H       90.909    -102.172     -57.005
  H       91.242    -104.168     -59.332
  H       89.147    -102.009     -58.894
  H       95.273     -95.728     -57.478
  H       93.588     -96.072     -57.315
  H       89.213    -103.183     -60.232
  P       91.045    -104.109     -55.139
  C       93.523    -104.767     -54.798
  O       92.528    -103.768     -54.623
  O       90.821    -105.625     -54.678
  O       89.963    -103.222     -54.629
  H       90.006    -105.689     -54.142
  H       94.456    -104.412     -54.414
  H       93.627    -104.988     -55.840
  H       93.235    -105.653     -54.272

 6  7  8  9  10  11  12  13  14  15  25  28  32  33  34  35 0
 6-311+G(2d,p)
 ****
 36  39  40 0
 6-311+G(2d,p)
 ****
 1  2  3  4  5  16  17  18  19  20  21  22  23  24 0
 3-21G
 ****
 26  27  29  30  31  37  38  41  42  43  44  45  46  47  48 0
 3-21G
 ****


