%nproc=1
%NoSave
%Mem=1900MB
#P OB98/GEN NMR

erre ene a

0 1
  C       38.884       5.038    -467.471
  O       37.641       4.783    -468.092
  H       38.777       4.891    -466.394
  H       39.195       6.071    -467.654
  H       39.642       4.349    -467.849
  P       37.564       5.002    -469.679
  C       37.410       2.506    -470.380
  O       38.194       3.691    -470.353
  C       36.857       2.290    -471.786
  O       36.036       3.417    -472.170
  C       37.926       2.181    -472.865
  O       38.538       0.905    -472.890
  C       37.107       2.469    -474.111
  O       36.441       1.288    -474.585
  C       36.087       3.516    -473.606
  N       36.417       4.865    -474.052
  C       35.511       5.447    -474.931
  O       34.490       4.880    -475.323
  N       35.837       6.699    -475.382
  C       36.972       7.389    -475.076
  O       37.238       8.478    -475.572
  C       37.887       6.729    -474.129
  C       37.577       5.510    -473.676
  O       38.668       6.134    -469.940
  O       36.222       5.393    -470.199
  H       38.234       6.996    -470.075
  H       37.119       0.587    -474.624
  H       35.197       7.134    -476.029
  H       38.795       7.252    -473.860
  H       38.247       4.996    -472.994
  H       35.081       3.274    -473.977
  H       37.730       2.829    -474.927
  H       38.671       2.978    -472.740
  H       36.225       1.389    -471.776
  H       36.574       2.604    -469.679
  H       38.033       1.661    -470.071
  P       39.958       0.750    -473.616
  C       41.491       1.264    -471.545
  O       40.990       1.673    -472.802
  O       39.702       1.555    -474.974
  O       40.391      -0.665    -473.792
  H       39.124       2.329    -474.852
  H       42.159       2.010    -471.167
  H       42.016       0.338    -471.654
  H       40.678       1.135    -470.862

 6  7  8  9  10  11  12  13  14  15  16  27  31  32  33  34  35 0
 6-311+G(2d,p)
 ****
 36  37 0
 6-311+G(2d,p)
 ****
 1  2  3  4  5  17  18  19  20  21  22  23  24  25 0
 3-21G
 ****
 26  28  29  30  38  39  40  41  42  43  44  45 0
 3-21G
 ****


