%nproc=1
%NoSave
%Mem=1900MB
#P OB98/GEN NMR

erre ene a

0 1
  C      -60.780      -5.165     -68.321
  O      -59.655      -5.931     -67.924
  P      -59.542      -7.479     -68.300
  C      -60.996      -8.212     -66.241
  O      -60.768      -8.251     -67.632
  C      -62.270      -9.004     -65.924
  O      -63.411      -8.382     -66.549
  C      -62.179     -10.441     -66.432
  O      -61.729     -11.308     -65.404
  C      -63.599     -10.723     -66.883
  O      -64.422     -11.082     -65.758
  C      -64.027      -9.346     -67.443
  N      -63.635      -9.005     -68.824
  C      -64.303      -9.591     -69.894
  O      -65.242     -10.370     -69.769
  N      -63.832      -9.262     -71.141
  C      -62.814      -8.393     -71.405
  O      -62.249      -8.295     -72.488
  C      -62.339      -7.610     -70.260
  C      -62.746      -7.962     -69.041
  O      -58.284      -7.969     -67.442
  O      -59.378      -7.777     -69.755
  H      -64.411     -10.328     -65.142
  H      -57.481      -7.999     -67.995
  H      -64.220      -9.791     -71.916
  H      -61.633      -6.811     -70.442
  H      -62.377      -7.420     -68.173
  H      -65.113      -9.216     -67.375
  H      -63.635     -11.569     -67.567
  H      -61.517     -10.493     -67.306
  H      -62.433      -8.994     -64.838
  H      -61.098      -7.174     -65.906
  H      -60.141      -8.641     -65.707
  P      -60.898     -12.621     -65.784
  C      -62.880     -14.181     -65.334
  O      -61.989     -13.674     -66.306
  O      -59.972     -13.126     -64.728
  O      -60.108     -12.184     -67.108
  H      -59.194     -11.918     -66.876
  H      -63.672     -14.737     -65.840
  H      -63.328     -13.365     -64.759
  H      -62.346     -14.859     -64.662
  H      -60.667      -4.159     -67.975
  H      -61.667      -5.589     -67.900
  H      -60.855      -5.169     -69.388

 3  4  5  6  7  8  9  10  11  12  13  23  28  29  30  31  32 0
 6-311+G(2d,p)
 ****
 33  34 0
 6-311+G(2d,p)
 ****
 1  2  14  15  16  17  18  19  20  21  22  24  25  26  27 0
 3-21G
 ****
 35  36  37  38  39  40  41  42  43  44  45 0
 3-21G
 ****


