%nproc=1
%NoSave
%Mem=1900MB
#P OB98/GEN NMR

erre ene a

0 1
  C      118.637     157.632    1767.995
  O      117.474     157.067    1768.571
  H      119.204     158.136    1768.790
  H      118.372     158.367    1767.236
  H      119.270     156.849    1767.571
  P      116.411     156.360    1767.602
  C      117.558     154.167    1768.353
  O      116.982     154.899    1767.275
  C      118.657     153.227    1767.844
  O      118.044     152.151    1767.090
  C      119.672     153.918    1766.910
  O      120.931     153.232    1767.079
  C      119.086     153.605    1765.541
  O      120.008     153.851    1764.513
  C      118.611     152.164    1765.766
  N      117.655     151.724    1764.751
  C      118.173     151.507    1763.478
  O      119.372     151.704    1763.245
  N      117.315     151.115    1762.473
  C      116.054     151.004    1762.722
  N      115.247     150.628    1761.690
  C      115.455     151.281    1764.041
  C      116.311     151.630    1765.018
  O      116.000     157.154    1766.404
  O      115.157     156.060    1768.557
  H      120.727     153.183    1764.525
  H      114.437     156.697    1768.370
  H      114.379     151.205    1764.194
  H      115.972     151.863    1766.015
  H      119.462     151.469    1765.768
  H      118.217     154.271    1765.349
  H      119.798     154.980    1767.114
  H      119.162     152.758    1768.706
  H      115.699     150.453    1760.790
  H      116.760     153.582    1768.828
  H      114.247     150.533    1761.751
  H      117.975     154.857    1769.103
  P      122.341     153.944    1766.870
  C      122.460     154.255    1769.433
  O      122.680     154.843    1768.156
  O      122.476     154.681    1765.560
  O      123.432     152.773    1766.965
  H      124.192     153.012    1766.387
  H      122.724     154.955    1770.198
  H      123.063     153.377    1769.530
  H      121.428     153.991    1769.531

 6  7  8  9  10  11  12  13  14  15  16  26  30  31  32  33  35 0
 6-311+G(2d,p)
 ****
 37  38 0
 6-311+G(2d,p)
 ****
 1  2  3  4  5  17  18  19  20  21  22  23  24  25 0
 3-21G
 ****
 27  28  29  34  36  39  40  41  42  43  44  45  46 0
 3-21G
 ****


