%nproc=1
%NoSave
%Mem=1900MB
#P OB98/GEN NMR

erre ene a

0 1
  C     -373.851    -861.712     -32.299
  O     -374.581    -862.476     -33.269
  P     -376.183    -862.282     -33.352
  C     -376.559    -861.563     -35.839
  O     -376.666    -862.590     -34.845
  C     -376.482    -862.189     -37.232
  O     -375.209    -862.843     -37.434
  C     -377.514    -863.298     -37.481
  O     -378.804    -862.740     -37.758
  C     -376.906    -864.012     -38.679
  O     -377.222    -863.326     -39.914
  C     -375.398    -863.925     -38.382
  N     -374.844    -865.178     -37.895
  C     -374.669    -866.178     -38.832
  O     -375.019    -866.069     -40.024
  N     -374.122    -867.351     -38.363
  C     -373.799    -867.636     -37.069
  O     -373.318    -868.701     -36.712
  C     -374.077    -866.561     -36.110
  C     -374.575    -865.406     -36.547
  O     -376.334    -860.688     -33.264
  O     -376.981    -862.943     -32.256
  H     -378.192    -863.416     -40.035
  H     -377.207    -860.452     -32.865
  H     -373.962    -868.094     -39.038
  H     -373.847    -866.752     -35.072
  H     -374.808    -864.606     -35.848
  H     -374.851    -863.627     -39.278
  H     -377.275    -865.044     -38.787
  H     -377.552    -863.984     -36.620
  H     -376.570    -861.401     -37.978
  H     -375.645    -860.995     -35.663
  H     -377.423    -860.906     -35.775
  P     -380.027    -863.802     -37.856
  C     -381.286    -862.767     -35.812
  O     -381.272    -863.056     -37.190
  O     -379.568    -864.905     -36.782
  O     -380.201    -864.327     -39.254
  H     -379.100    -864.508     -36.034
  H     -380.289    -862.530     -35.454
  H     -381.698    -863.601     -35.265
  H     -381.942    -861.898     -35.653
  H     -372.810    -861.950     -32.368
  H     -374.207    -861.948     -31.318
  H     -373.991    -860.668     -32.488

 3  4  5  6  7  8  9  10  11  12  13  23  28  29  30  31  32 0
 6-311+G(2d,p)
 ****
 33  34 0
 6-311+G(2d,p)
 ****
 1  2  14  15  16  17  18  19  20  21  22  24  25  26 0
 3-21G
 ****
 27  35  36  37  38  39  40  41  42  43  44  45 0
 3-21G
 ****


