%nproc=1
%NoSave
%Mem=1900MB
#P OB98/GEN NMR

erre ene a

0 1
  C      293.518    -340.352     -45.897
  O      293.233    -339.435     -44.857
  P      294.372    -339.033     -43.809
  C      294.392    -336.445     -44.096
  O      294.034    -337.552     -43.294
  C      294.148    -335.123     -43.354
  O      292.726    -334.854     -43.381
  C      294.543    -335.133     -41.881
  O      294.663    -333.783     -41.434
  C      293.331    -335.773     -41.239
  O      293.250    -335.494     -39.845
  C      292.166    -335.221     -42.098
  N      291.099    -336.224     -42.271
  C      290.408    -336.611     -41.127
  O      290.599    -336.102     -40.024
  N      289.547    -337.663     -41.277
  C      289.359    -338.372     -42.428
  O      288.836    -339.477     -42.472
  C      289.930    -337.769     -43.644
  C      290.784    -336.752     -43.510
  O      295.657    -338.828     -44.741
  O      294.621    -340.033     -42.733
  H      294.031    -335.922     -39.421
  H      296.199    -339.639     -44.747
  H      289.154    -338.036     -40.420
  H      289.681    -338.213     -44.597
  H      291.260    -336.320     -44.384
  H      291.721    -334.328     -41.640
  H      293.400    -336.862     -41.355
  H      295.461    -335.688     -41.665
  H      294.656    -334.310     -43.886
  H      293.821    -336.474     -45.028
  H      295.449    -336.506     -44.378
  P      295.603    -333.493     -40.165
  C      296.608    -331.338     -41.133
  O      295.812    -331.905     -40.112
  O      296.849    -334.311     -40.074
  O      294.624    -333.764     -38.923
  H      295.150    -333.908     -38.115
  H      296.273    -330.313     -41.309
  H      296.528    -331.904     -42.064
  H      297.652    -331.319     -40.806
  H      292.642    -340.498     -46.494
  H      293.822    -341.287     -45.475
  H      294.306    -339.964     -46.508

 3  4  5  6  7  8  9  10  11  12  13  23  28  29  30  31  32 0
 6-311+G(2d,p)
 ****
 33  34 0
 6-311+G(2d,p)
 ****
 1  2  14  15  16  17  18  19  20  21  22  24  25  26  27 0
 3-21G
 ****
 35  36  37  38  39  40  41  42  43  44  45 0
 3-21G
 ****


