%nproc=1
%NoSave
%Mem=1900MB
#P OB98/GEN NMR

erre ene a

0 1
  C     -455.977    -913.265     114.878
  O     -456.780    -914.379     114.563
  H     -456.126    -913.016     115.935
  H     -456.266    -912.403     114.271
  H     -454.915    -913.489     114.729
  P     -456.520    -915.155     113.186
  C     -456.201    -917.377     114.466
  O     -456.904    -916.696     113.435
  C     -456.820    -918.754     114.728
  O     -458.074    -918.579     115.447
  C     -457.152    -919.481     113.418
  O     -457.126    -920.900     113.560
  C     -458.591    -919.049     113.150
  O     -459.305    -919.947     112.312
  C     -459.148    -918.969     114.569
  N     -461.879    -916.053     117.755
  C     -460.967    -917.054     118.051
  N     -460.732    -917.297     119.362
  N     -460.329    -917.748     117.137
  C     -460.716    -917.449     115.862
  C     -461.638    -916.517     115.464
  C     -462.284    -915.714     116.474
  O     -463.134    -914.852     116.266
  N     -461.759    -916.498     114.093
  C     -460.935    -917.430     113.668
  N     -460.247    -918.013     114.707
  O     -454.919    -915.210     113.078
  O     -457.127    -914.538     111.965
  H     -458.821    -920.014     111.469
  H     -454.641    -915.335     112.164
  H     -462.303    -915.538     118.502
  H     -460.757    -917.698     112.637
  H     -459.514    -919.931     114.907
  H     -458.568    -918.073     112.648
  H     -461.333    -916.921     120.085
  H     -456.500    -919.190     112.595
  H     -460.307    -918.201     119.586
  H     -456.161    -919.344     115.378
  H     -456.249    -916.754     115.363
  H     -455.142    -917.479     114.204
  P     -456.099    -921.736     112.651
  C     -455.871    -923.618     114.508
  O     -456.050    -923.254     113.158
  O     -454.671    -921.157     113.057
  O     -456.364    -921.634     111.186
  H     -454.265    -920.712     112.291
  H     -455.873    -924.685     114.593
  H     -456.667    -923.211     115.096
  H     -454.936    -923.234     114.860

 6  7  8  9  10  11  12  13  14  15  26  29  33  34 0
 6-311+G(2d,p)
 ****
 36  38  39  40  41 0
 6-311+G(2d,p)
 ****
 1  2  3  4  5  16  17  18  19  20  21  22  23  24  25 0
 3-21G
 ****
 27  28  30  31  32  35  37  42  43  44  45  46  47 0
 3-21G
 ****
 48  49 0
 3-21G
 ****


