%nproc=1
%NoSave
%Mem=1900MB
#P OB98/GEN NMR

erre ene a

0 1
  C     -701.046     362.124     426.286
  O     -700.822     362.254     427.675
  H     -702.123     362.169     426.097
  H     -700.668     361.159     425.936
  H     -700.557     362.937     425.738
  P     -699.307     362.449     428.160
  C     -699.865     364.482     429.686
  O     -699.377     363.150     429.605
  C     -700.112     364.861     431.145
  O     -701.067     363.915     431.713
  C     -698.856     364.818     432.023
  O     -698.936     365.873     432.985
  C     -698.978     363.484     432.738
  O     -698.253     363.411     433.958
  C     -700.495     363.399     432.929
  N     -700.953     362.033     433.186
  C     -700.376     361.358     434.257
  O     -699.576     361.853     435.050
  N     -700.758     360.049     434.403
  C     -701.617     359.364     433.592
  O     -701.905     358.185     433.767
  C     -702.187     360.130     432.478
  C     -701.831     361.407     432.328
  O     -698.773     363.619     427.206
  O     -698.450     361.228     428.103
  H     -698.387     363.245     426.393
  H     -698.617     364.107     434.552
  H     -700.348     359.546     435.173
  H     -702.864     359.614     431.806
  H     -702.219     361.996     431.497
  H     -700.816     364.054     433.746
  H     -698.619     362.678     432.087
  H     -697.914     364.899     431.466
  H     -700.578     365.852     431.182
  H     -700.806     364.556     429.134
  H     -699.135     365.161     429.232
  P     -698.197     367.252     432.631
  C     -699.696     369.255     433.416
  O     -698.691     368.302     433.739
  O     -698.963     367.685     431.303
  O     -696.716     367.103     432.499
  H     -699.906     367.437     431.305
  H     -699.896     369.866     434.271
  H     -700.591     368.745     433.125
  H     -699.358     369.870     432.609

 6  7  8  9  10  11  12  13  14  15  16  27  31  32  33  34  35 0
 6-311+G(2d,p)
 ****
 36  37 0
 6-311+G(2d,p)
 ****
 1  2  3  4  5  17  18  19  20  21  22  23  24  25 0
 3-21G
 ****
 26  28  29  30  38  39  40  41  42  43  44  45 0
 3-21G
 ****


