%nproc=1
%NoSave
%Mem=1900MB
#P OB98/GEN NMR

erre ene a

0 1
  C     -308.455    -389.232    -260.500
  O     -308.254    -390.629    -260.300
  P     -307.543    -391.477    -261.464
  C     -305.112    -391.708    -260.433
  O     -305.969    -391.209    -261.439
  C     -303.730    -391.997    -261.041
  O     -303.047    -390.760    -261.338
  C     -302.821    -392.809    -260.117
  O     -303.024    -394.198    -260.256
  C     -301.449    -392.349    -260.560
  O     -301.066    -393.009    -261.787
  C     -301.691    -390.837    -260.812
  N     -301.580    -389.915    -259.660
  C     -300.340    -389.366    -259.331
  O     -299.295    -389.601    -259.936
  N     -300.331    -388.505    -258.263
  C     -301.428    -388.006    -257.611
  O     -301.358    -387.195    -256.703
  C     -302.716    -388.506    -258.097
  C     -302.738    -389.426    -259.070
  O     -308.029    -390.763    -262.805
  O     -307.876    -392.942    -261.453
  H     -300.143    -392.753    -261.969
  H     -308.580    -391.370    -263.335
  H     -299.429    -388.157    -257.966
  H     -303.611    -388.107    -257.641
  H     -303.692    -389.796    -259.432
  H     -301.013    -390.463    -261.589
  H     -300.683    -392.617    -259.825
  H     -302.963    -392.487    -259.080
  H     -303.877    -392.543    -261.989
  H     -305.520    -392.621    -259.988
  H     -305.028    -390.977    -259.627
  P     -303.263    -395.099    -258.949
  C     -305.797    -394.705    -259.091
  O     -304.635    -394.569    -258.302
  O     -302.109    -395.223    -258.018
  O     -303.702    -396.525    -259.557
  H     -302.927    -397.132    -259.612
  H     -306.673    -394.460    -258.478
  H     -305.897    -395.742    -259.448
  H     -305.756    -394.024    -259.941
  H     -308.936    -388.814    -259.641
  H     -309.070    -389.080    -261.362
  H     -307.510    -388.753    -260.647

 3  4  5  6  7  8  9  10  11  12  13  23  28  29  30  31  32 0
 6-311+G(2d,p)
 ****
 33  34 0
 6-311+G(2d,p)
 ****
 1  2  14  15  16  17  18  19  20  21  22  24  25  26  27 0
 3-21G
 ****
 35  36  37  38  39  40  41  42  43  44  45 0
 3-21G
 ****


