%nproc=1
%NoSave
%Mem=1900MB
#P OB98/GEN NMR

erre ene a

0 1
  C     -161.140      36.571     -89.517
  O     -162.001      35.818     -90.381
  P     -162.431      34.349     -89.898
  C     -162.140      33.517     -92.366
  O     -162.965      33.603     -91.211
  C     -163.005      33.403     -93.619
  O     -163.637      34.671     -93.920
  C     -162.232      33.029     -94.877
  O     -161.876      31.654     -94.872
  C     -163.227      33.428     -95.958
  O     -164.229      32.411     -96.118
  C     -163.863      34.700     -95.349
  N     -163.359      35.932     -95.946
  C     -164.282      36.669     -96.684
  O     -165.447      36.309     -96.858
  N     -163.813      37.830     -97.239
  C     -162.534      38.298     -97.152
  O     -162.172      39.352     -97.661
  C     -161.593      37.453     -96.401
  C     -162.039      36.324     -95.842
  O     -163.751      34.678     -89.059
  O     -161.354      33.648     -89.139
  H     -164.268      35.411     -89.432
  H     -164.815      32.475     -95.337
  H     -164.468      38.384     -97.766
  H     -160.563      37.779     -96.333
  H     -161.361      35.686     -95.285
  H     -164.952      34.679     -95.486
  H     -162.750      33.579     -96.931
  H     -161.329      33.646     -94.957
  H     -163.795      32.663     -93.424
  H     -161.493      32.638     -92.295
  H     -161.495      34.401     -92.406
  P     -160.611      31.232     -95.774
  C     -161.353      28.815     -96.438
  O     -160.497      29.637     -95.677
  O     -159.399      31.768     -94.875
  O     -160.647      31.793     -97.158
  H     -159.505      31.560     -93.933
  H     -160.909      27.816     -96.510
  H     -161.492      29.207     -97.447
  H     -162.322      28.732     -95.940
  H     -160.936      37.524     -89.959
  H     -160.222      36.039     -89.376
  H     -161.619      36.713     -88.571

 3  4  5  6  7  8  9  10  11  12  13  24  28  29  30  31  32 0
 6-311+G(2d,p)
 ****
 33  34 0
 6-311+G(2d,p)
 ****
 1  2  14  15  16  17  18  19  20  21  22  23  25  26  27 0
 3-21G
 ****
 35  36  37  38  39  40  41  42  43  44  45 0
 3-21G
 ****


