%nproc=1
%NoSave
%Mem=1900MB
#P OB98/GEN NMR

erre ene a

0 1
  C     -355.324    -635.754      24.195
  O     -355.218    -634.457      23.652
  H     -356.244    -636.218      23.833
  H     -355.373    -635.695      25.288
  H     -354.473    -636.376      23.899
  P     -353.807    -633.714      23.801
  C     -353.846    -632.804      21.376
  O     -353.805    -632.492      22.759
  C     -355.283    -633.023      20.916
  O     -356.076    -631.862      21.275
  C     -355.431    -633.245      19.406
  O     -356.443    -634.229      19.177
  C     -355.914    -631.896      18.903
  O     -356.642    -631.997      17.678
  C     -356.743    -631.407      20.085
  N     -359.880    -627.602      19.047
  C     -360.094    -628.961      19.026
  N     -361.324    -629.378      18.676
  N     -359.174    -629.846      19.329
  C     -357.999    -629.287      19.701
  C     -357.655    -627.951      19.753
  C     -358.670    -626.986      19.390
  O     -358.539    -625.771      19.365
  N     -356.352    -627.788      20.144
  C     -355.901    -629.018      20.333
  N     -356.869    -629.962      20.079
  O     -352.775    -634.756      23.160
  O     -353.415    -633.354      25.195
  H     -356.803    -631.082      17.361
  H     -352.154    -635.073      23.843
  H     -360.609    -626.964      18.783
  H     -354.908    -629.282      20.631
  H     -357.758    -631.822      20.078
  H     -355.048    -631.238      18.726
  H     -362.090    -628.761      18.475
  H     -354.505    -633.556      18.926
  H     -361.516    -630.373      18.693
  H     -355.700    -633.871      21.479
  H     -353.266    -633.718      21.200
  H     -353.396    -631.981      20.804
  P     -355.957    -635.635      18.566
  C     -358.387    -636.541      18.644
  O     -357.220    -636.336      17.855
  O     -355.713    -636.533      19.875
  O     -354.725    -635.544      17.732
  H     -354.754    -636.662      20.011
  H     -359.142    -637.012      18.049
  H     -358.749    -635.598      18.998
  H     -358.148    -637.167      19.478

 6  7  8  9  10  11  12  13  14  15  26  29  33  34 0
 6-311+G(2d,p)
 ****
 36  38  39  40  41 0
 6-311+G(2d,p)
 ****
 1  2  3  4  5  16  17  18  19  20  21  22  23  24  25 0
 3-21G
 ****
 27  28  30  31  32  35  37  42  43  44  45  46  47 0
 3-21G
 ****
 48  49 0
 3-21G
 ****


