%nproc=1
%NoSave
%Mem=1900MB
#P OB98/GEN NMR

erre ene a

0 1
  C       -2.411       3.561      -8.500
  O       -3.090       2.327      -8.647
  P       -2.306       0.950      -8.425
  C       -1.152      -0.068      -6.327
  O       -1.489       1.092      -7.054
  C        0.227       0.070      -5.669
  O        1.223       0.069      -6.721
  C        0.441       1.366      -4.895
  O        1.552       1.192      -4.013
  C        0.815       2.330      -5.999
  O        1.495       3.479      -5.505
  C        1.637       1.434      -6.961
  N        1.406       1.800      -8.370
  C        1.796       3.077      -8.761
  O        2.380       3.857      -8.010
  N        1.417       3.459     -10.018
  C        0.661       2.714     -10.874
  O        0.078       3.174     -11.848
  C        0.489       1.301     -10.503
  C        0.841       0.919      -9.273
  O       -1.172       1.001      -9.553
  O       -3.145      -0.276      -8.537
  H        2.252       3.152      -4.965
  H       -1.458       0.503     -10.341
  H        1.573       4.433     -10.247
  H        0.027       0.638     -11.220
  H        0.678      -0.106      -8.952
  H        2.712       1.516      -6.762
  H       -0.099       2.676      -6.498
  H       -0.437       1.706      -4.337
  H        0.413      -0.799      -5.027
  H       -1.175      -0.933      -6.996
  H       -1.899      -0.259      -5.548
  P        1.530       1.974      -2.614
  C       -0.068       2.021      -0.605
  O        0.081       1.717      -1.977
  O        1.970       3.399      -2.655
  O        2.486       1.082      -1.687
  H        2.784       1.607      -0.921
  H       -1.106       2.308      -0.418
  H        0.587       2.843      -0.303
  H        0.168       1.134      -0.013
  H       -3.091       4.366      -8.685
  H       -1.602       3.609      -9.199
  H       -2.027       3.640      -7.505

 3  4  5  6  7  8  9  10  11  12  13  23  28  29  30  31  32 0
 6-311+G(2d,p)
 ****
 33  34 0
 6-311+G(2d,p)
 ****
 1  2  14  15  16  17  18  19  20  21  22  24  25  26  27 0
 3-21G
 ****
 35  36  37  38  39  40  41  42  43  44  45 0
 3-21G
 ****


