%nproc=1
%NoSave
%Mem=1900MB
#P OB98/GEN NMR

erre ene a

0 1
  C      248.930    -389.665     233.066
  O      248.982    -390.914     232.409
  H      248.725    -388.886     232.326
  H      249.893    -389.454     233.539
  H      248.138    -389.657     233.817
  P      249.185    -392.211     233.332
  C      251.777    -392.147     233.259
  O      250.607    -392.033     234.057
  C      253.005    -392.405     234.131
  O      253.169    -391.283     235.054
  C      252.924    -393.687     234.976
  O      254.240    -394.243     235.068
  C      252.534    -393.162     236.348
  O      252.869    -394.070     237.397
  C      253.320    -391.851     236.371
  N      254.277    -390.113     240.996
  C      254.992    -390.997     240.200
  N      256.132    -391.492     240.718
  N      254.610    -391.356     239.006
  C      253.463    -390.755     238.600
  C      252.666    -389.874     239.288
  C      253.081    -389.501     240.625
  O      252.485    -388.741     241.380
  N      251.571    -389.513     238.544
  C      251.706    -390.179     237.409
  N      252.839    -390.945     237.396
  O      249.452    -393.366     232.257
  O      248.043    -392.541     234.235
  H      252.422    -394.922     237.213
  H      248.618    -393.820     232.032
  H      254.607    -389.876     241.913
  H      251.020    -390.138     236.577
  H      254.388    -392.008     236.559
  H      251.455    -392.975     236.390
  H      256.510    -391.220     241.614
  H      252.229    -394.439     234.589
  H      256.691    -392.104     240.135
  H      253.890    -392.415     233.487
  H      251.920    -391.212     232.703
  H      251.646    -392.969     232.546
  P      254.645    -395.397     234.033
  C      254.589    -397.576     235.453
  O      253.930    -396.755     234.502
  O      256.182    -395.670     234.387
  O      254.462    -395.028     232.599
  H      256.650    -395.997     233.597
  H      253.987    -398.436     235.659
  H      254.742    -397.023     236.356
  H      255.535    -397.888     235.061

 6  7  8  9  10  11  12  13  14  15  26  29  33  34 0
 6-311+G(2d,p)
 ****
 36  38  39  40  41 0
 6-311+G(2d,p)
 ****
 1  2  3  4  5  16  17  18  19  20  21  22  23  24  25 0
 3-21G
 ****
 27  28  30  31  32  35  37  42  43  44  45  46  47 0
 3-21G
 ****
 48  49 0
 3-21G
 ****


