%nproc=1
%NoSave
%Mem=1900MB
#P OB98/GEN NMR

erre ene a

0 1
  C      716.142    -899.111    -586.861
  O      716.440    -898.101    -587.834
  P      715.224    -897.651    -588.789
  C      715.292    -895.091    -588.318
  O      714.572    -896.311    -588.165
  C      714.970    -894.091    -587.183
  O      713.570    -893.751    -587.245
  C      715.242    -894.631    -585.780
  O      715.747    -893.561    -584.971
  C      713.862    -894.981    -585.259
  O      713.812    -895.001    -583.830
  C      713.035    -893.881    -585.915
  N      708.613    -893.491    -583.476
  C      709.843    -892.941    -583.174
  N      709.896    -892.191    -582.043
  N      710.905    -893.101    -583.910
  C      710.688    -893.831    -585.020
  C      709.525    -894.421    -585.448
  C      708.360    -894.271    -584.604
  O      707.253    -894.771    -584.794
  N      709.690    -895.091    -586.637
  C      710.972    -894.911    -586.935
  N      711.623    -894.161    -585.975
  O      714.113    -898.771    -588.518
  O      715.581    -897.571    -590.228
  H      714.044    -894.111    -583.519
  H      713.858    -899.191    -589.354
  H      707.827    -893.351    -582.871
  H      711.476    -895.311    -587.794
  H      713.169    -892.921    -585.396
  H      713.577    -895.981    -585.617
  H      709.105    -891.981    -581.470
  H      715.935    -895.481    -585.735
  H      710.792    -891.751    -581.821
  H      715.544    -893.181    -587.368
  H      715.027    -894.631    -589.273
  H      716.358    -895.311    -588.337
  P      717.293    -893.641    -584.539
  C      718.246    -891.601    -585.844
  O      718.120    -893.011    -585.759
  O      717.619    -895.201    -584.635
  O      717.588    -893.071    -583.192
  H      718.345    -895.441    -584.032
  H      717.914    -891.091    -584.942
  H      717.651    -891.231    -586.688
  H      719.299    -891.351    -586.025
  H      717.021    -899.326    -586.290
  H      715.814    -900.000    -587.358
  H      715.369    -898.761    -586.209

 3  4  5  6  7  8  9  10  11  12  23  26  30  31  33  0
 6-311+G(2d,p)
 ****
 35  36  37  38 0
 6-311+G(2d,p)
 ****
 1  2  13  14  15  16  17  18  19  20  21  22  24  25  27  28  29 0
 3-21G
 ****
 32  34  39  40  41  42  43  44  45  46  47  48  49 0
 3-21G
 ****


