%nproc=1
%NoSave
%Mem=1900MB
#P OB98/GEN NMR

erre ene a

0 1
  C      140.812     312.429     264.126
  O      140.953     311.031     263.978
  H      140.498     312.880     263.180
  H      140.046     312.630     264.881
  H      141.757     312.873     264.454
  P      142.010     310.523     262.883
  C      143.745     309.738     264.657
  O      143.443     310.637     263.600
  C      145.225     309.847     265.004
  O      145.511     309.095     266.206
  C      146.152     309.285     263.934
  O      146.387     310.203     262.879
  C      147.411     309.043     264.747
  O      148.090     310.292     264.977
  C      146.830     308.503     266.064
  N      149.213     304.069     265.133
  C      149.632     305.351     265.059
  N      148.942     306.474     265.346
  C      147.699     306.178     265.753
  C      147.132     304.920     265.883
  C      147.948     303.826     265.546
  N      147.513     302.520     265.588
  N      145.822     305.019     266.310
  C      145.609     306.312     266.448
  N      146.704     307.055     266.093
  O      142.049     311.711     261.811
  O      141.728     309.191     262.272
  H      148.287     310.674     264.101
  H      142.487     311.415     260.991
  H      150.656     305.493     264.726
  H      144.686     306.758     266.790
  H      147.423     308.796     266.939
  H      148.119     308.379     264.245
  H      145.785     308.324     263.549
  H      145.453     310.900     265.210
  H      143.517     308.717     264.332
  H      148.119     301.820     265.187
  H      146.534     302.339     265.750
  H      143.132     309.983     265.529
  P      147.357     309.730     261.688
  C      145.502     308.499     260.347
  O      146.713     308.387     261.088
  O      148.650     309.202     262.465
  O      147.685     310.795     260.694
  H      149.458     309.356     261.940
  H      145.197     307.529     260.014
  H      145.659     309.134     259.500
  H      144.740     308.918     260.970

 6  7  8  9  10  11  12  13  14  15  25  28  32  33  34  35 0
 6-311+G(2d,p)
 ****
 36  39  40 0
 6-311+G(2d,p)
 ****
 1  2  3  4  5  16  17  18  19  20  21  22  23  24 0
 3-21G
 ****
 26  27  29  30  31  37  38  41  42  43  44  45  46  47 0
 3-21G
 ****
 48 0
 3-21G
 ****


