%nproc=1
%NoSave
%Mem=1900MB
#P OB98/GEN NMR

erre ene a

0 1
  C      -69.318     132.448       3.858
  O      -70.141     133.522       3.462
  H      -69.936     131.547       3.929
  H      -68.875     132.640       4.837
  H      -68.533     132.275       3.118
  P      -69.534     135.009       3.462
  C      -71.224     136.208       4.975
  O      -70.813     135.977       3.633
  C      -72.384     137.202       5.042
  O      -72.040     138.404       4.305
  C      -73.696     136.663       4.459
  O      -74.770     136.954       5.356
  C      -73.863     137.443       3.164
  O      -75.223     137.513       2.749
  C      -73.199     138.774       3.535
  N      -72.842     139.577       2.371
  C      -73.887     140.256       1.738
  O      -75.044     140.132       2.144
  N      -73.607     141.027       0.640
  C      -72.398     141.076       0.179
  N      -72.186     141.850      -0.919
  C      -71.271     140.338       0.787
  C      -71.561     139.621       1.873
  O      -68.659     135.326       2.296
  O      -68.794     135.141       4.873
  H      -75.751     137.905       3.479
  H      -68.138     135.880       4.833
  H      -70.282     140.401       0.359
  H      -70.796     139.054       2.391
  H      -73.859     139.372       4.179
  H      -73.290     136.953       2.366
  H      -73.679     135.591       4.278
  H      -72.511     137.512       6.086
  H      -72.984     142.341      -1.304
  H      -70.367     136.583       5.544
  H      -71.288     141.957      -1.367
  H      -71.549     135.252       5.401
  P      -75.527     135.685       5.987
  C      -77.760     136.440       4.912
  O      -77.087     136.047       6.099
  O      -75.023     135.681       7.506
  O      -75.217     134.399       5.296
  H      -74.320     135.016       7.626
  H      -78.785     136.649       5.136
  H      -77.706     135.649       4.193
  H      -77.296     137.318       4.513

 6  7  8  9  10  11  12  13  14  15  16  26  30  31  32  33  35 0
 6-311+G(2d,p)
 ****
 37  38 0
 6-311+G(2d,p)
 ****
 1  2  3  4  5  17  18  19  20  21  22  23  24  25 0
 3-21G
 ****
 27  28  29  34  36  39  40  41  42  43  44  45  46 0
 3-21G
 ****


