%nproc=1
%NoSave
%Mem=1900MB
#P OB98/GEN NMR

erre ene a

0 1
  C     -171.882      46.904     549.477
  O     -170.519      47.250     549.452
  H     -172.450      47.648     548.910
  H     -172.249      46.905     550.509
  H     -172.046      45.920     549.025
  P     -169.428      46.190     549.965
  C     -167.968      46.037     552.089
  O     -169.170      46.539     551.509
  C     -167.940      46.346     553.589
  O     -167.853      47.791     553.756
  C     -169.202      45.865     554.337
  O     -168.822      45.464     555.659
  C     -170.023      47.139     554.400
  O     -171.007      47.088     555.402
  C     -168.932      48.181     554.630
  N     -169.416      49.529     554.358
  C     -169.830      50.289     555.453
  O     -169.816      49.868     556.612
  N     -170.340      51.528     555.172
  C     -170.568      52.029     553.925
  O     -171.093      53.115     553.725
  C     -170.155      51.165     552.803
  C     -169.602      49.977     553.062
  O     -168.191      46.068     549.135
  O     -170.240      44.812     550.061
  H     -170.618      46.783     556.243
  H     -169.623      44.055     550.042
  H     -170.630      52.090     555.955
  H     -170.338      51.526     551.792
  H     -169.306      49.310     552.265
  H     -168.551      48.133     555.660
  H     -170.528      47.302     553.441
  H     -169.718      45.043     553.833
  H     -167.036      45.915     554.030
  H     -167.119      46.520     551.593
  H     -167.910      44.953     551.927
  P     -169.215      44.023     556.253
  C     -170.872      43.098     557.985
  O     -170.659      44.077     556.977
  O     -168.144      43.391     557.095
  O     -169.484      43.125     554.955
  H     -169.038      42.256     555.064
  H     -171.851      43.219     558.399
  H     -170.141      43.217     558.758
  H     -170.784      42.121     557.558

 6  7  8  9  10  11  12  13  14  15  16  26  31  32  33  34  35 0
 6-311+G(2d,p)
 ****
 36  37 0
 6-311+G(2d,p)
 ****
 1  2  3  4  5  17  18  19  20  21  22  23  24  25 0
 3-21G
 ****
 27  28  29  30  38  39  40  41  42  43  44  45 0
 3-21G
 ****


