%nproc=1
%NoSave
%Mem=1900MB
#P OB98/GEN NMR

erre ene a

0 1
  C     -898.947    -777.642    -149.962
  O     -898.257    -777.513    -151.206
  P     -896.647    -777.628    -151.155
  C     -896.597    -775.046    -151.643
  O     -896.087    -776.348    -151.953
  C     -895.487    -774.009    -151.780
  O     -894.527    -774.138    -150.685
  C     -894.637    -774.137    -153.061
  O     -895.377    -773.657    -154.175
  C     -893.427    -773.315    -152.690
  O     -893.687    -771.915    -152.851
  C     -893.247    -773.652    -151.183
  N     -892.167    -774.612    -150.940
  C     -890.907    -774.222    -151.386
  O     -890.707    -773.161    -151.983
  N     -889.897    -775.109    -151.148
  C     -890.027    -776.321    -150.536
  O     -889.067    -777.053    -150.311
  C     -891.397    -776.698    -150.110
  C     -892.397    -775.841    -150.335
  O     -896.407    -778.846    -152.147
  O     -896.117    -777.798    -149.780
  H     -897.017    -778.884    -152.892
  H     -894.447    -771.696    -152.252
  H     -888.977    -774.846    -151.454
  H     -891.517    -777.652    -149.633
  H     -893.387    -776.095    -150.027
  H     -893.027    -772.749    -150.621
  H     -892.547    -773.556    -153.311
  H     -894.377    -775.189    -153.215
  H     -895.937    -773.007    -151.715
  H     -896.997    -775.036    -150.631
  H     -897.417    -774.816    -152.328
  P     -895.897    -774.735    -155.236
  C     -893.987    -774.218    -156.943
  O     -895.387    -774.267    -156.687
  O     -897.467    -774.445    -155.257
  O     -895.547    -776.146    -154.878
  H     -897.677    -773.477    -155.310
  H     -893.867    -774.209    -158.035
  H     -893.467    -775.090    -156.541
  H     -893.557    -773.304    -156.553
  H     -900.000    -777.548    -150.127
  H     -898.621    -776.874    -149.292
  H     -898.737    -778.600    -149.535

 3  4  5  6  7  8  9  10  11  12  13  24  28  29  30  31  32 0
 6-311+G(2d,p)
 ****
 33  34 0
 6-311+G(2d,p)
 ****
 1  2  14  15  16  17  18  19  20  21  22  23  25  26  27 0
 3-21G
 ****
 35  36  37  38  39  40  41  42  43  44  45 0
 3-21G
 ****


