%nproc=1
%NoSave
%Mem=1900MB
#P OB98/GEN NMR

erre ene a

0 1
  C     -555.941      27.284     -57.520
  O     -556.283      27.670     -58.854
  P     -555.887      26.630     -60.013
  C     -553.371      27.252     -59.682
  O     -554.344      26.199     -59.802
  C     -551.944      26.697     -59.737
  O     -551.748      25.963     -60.956
  C     -550.842      27.781     -59.671
  O     -549.737      27.269     -58.901
  C     -550.380      27.883     -61.121
  O     -549.059      28.419     -61.217
  C     -550.525      26.427     -61.543
  N     -547.959      24.846     -65.630
  C     -547.635      24.755     -64.284
  N     -546.448      24.168     -64.002
  N     -548.407      25.188     -63.324
  C     -549.572      25.714     -63.767
  C     -550.011      25.873     -65.063
  C     -549.121      25.429     -66.126
  O     -549.336      25.548     -67.342
  N     -551.257      26.466     -65.104
  C     -551.563      26.686     -63.847
  N     -550.575      26.256     -63.000
  O     -555.850      27.541     -61.333
  O     -556.846      25.493     -60.168
  H     -548.749      28.261     -62.127
  H     -556.459      27.179     -62.009
  H     -547.313      24.516     -66.333
  H     -552.463      27.159     -63.493
  H     -549.709      25.815     -61.159
  H     -551.056      28.542     -61.671
  H     -545.833      23.756     -64.679
  H     -551.166      28.746     -59.269
  H     -546.220      24.031     -63.022
  H     -551.822      25.982     -58.906
  H     -553.525      27.789     -58.724
  H     -553.531      27.969     -60.487
  P     -549.707      27.676     -57.347
  C     -548.278      29.806     -57.818
  O     -549.480      29.256     -57.302
  O     -548.308      27.072     -56.823
  O     -550.871      27.145     -56.557
  H     -548.360      26.873     -55.884
  H     -547.698      29.048     -58.367
  H     -547.673      30.157     -56.991
  H     -548.511      30.619     -58.490
  H     -556.250      28.048     -56.837
  H     -554.882      27.149     -57.448
  H     -556.435      26.367     -57.276

 3  4  5  6  7  8  9  10  11  12  23  26  30  31  33  0
 6-311+G(2d,p)
 ****
 35  36  37  38 0
 6-311+G(2d,p)
 ****
 1  2  13  14  15  16  17  18  19  20  21  22  24  25  27  28  29 0
 3-21G
 ****
 32  34  39  40  41  42  43  44  45  46  47  48  49 0
 3-21G
 ****


