%nproc=1
%NoSave
%Mem=1900MB
#P OB98/GEN NMR

erre ene a

0 1
  C      -66.709    -202.217    -428.391
  O      -66.994    -201.254    -427.371
  P      -65.736    -200.671    -426.552
  C      -66.641    -201.041    -424.138
  O      -66.294    -200.107    -425.154
  C      -67.796    -200.511    -423.291
  O      -68.993    -200.362    -424.079
  C      -68.194    -201.422    -422.136
  O      -67.322    -201.276    -421.025
  C      -69.584    -200.886    -421.802
  O      -69.470    -199.727    -420.955
  C      -70.127    -200.491    -423.184
  N      -74.784    -202.475    -422.925
  C      -74.203    -201.472    -422.168
  N      -74.991    -200.900    -421.230
  N      -72.975    -201.068    -422.322
  C      -72.315    -201.713    -423.323
  C      -72.778    -202.723    -424.132
  C      -74.135    -203.184    -423.934
  O      -74.686    -204.091    -424.550
  N      -71.825    -203.118    -425.036
  C      -70.797    -202.333    -424.786
  N      -71.039    -201.473    -423.745
  O      -65.364    -199.341    -427.361
  O      -64.586    -201.616    -426.461
  H      -70.322    -199.254    -421.001
  H      -64.417    -199.132    -427.247
  H      -75.733    -202.753    -422.761
  H      -69.858    -202.344    -425.332
  H      -70.633    -199.524    -423.159
  H      -70.199    -201.615    -421.264
  H      -75.970    -201.111    -421.108
  H      -68.269    -202.463    -422.467
  H      -74.594    -200.136    -420.694
  H      -67.509    -199.524    -422.902
  H      -65.774    -201.227    -423.496
  H      -66.901    -201.996    -424.603
  P      -67.348    -202.441    -419.918
  C      -67.585    -201.137    -417.684
  O      -66.720    -201.789    -418.596
  O      -66.216    -203.450    -420.427
  O      -68.671    -203.110    -419.754
  H      -66.421    -204.362    -420.137
  H      -68.504    -201.708    -417.530
  H      -67.835    -200.138    -418.064
  H      -67.070    -201.028    -416.725
  H      -67.622    -202.524    -428.857
  H      -66.228    -203.067    -427.954
  H      -66.064    -201.780    -429.124

 3  4  5  6  7  8  9  10  11  12  23  26  30  31  33  0
 6-311+G(2d,p)
 ****
 35  36  37  38 0
 6-311+G(2d,p)
 ****
 1  2  13  14  15  16  17  18  19  20  21  22  24  25  27  28  29 0
 3-21G
 ****
 32  34  39  40  41  42  43  44  45  46  47  48  49 0
 3-21G
 ****


