%nproc=1
%NoSave
%Mem=1900MB
#P OB98/GEN NMR

erre ene a

0 1
  C      252.824    -293.580     425.392
  O      254.094    -293.945     425.896
  H      252.890    -293.480     424.306
  H      252.513    -292.620     425.816
  H      252.085    -294.350     425.631
  P      254.204    -294.165     427.480
  C      254.370    -291.632     428.037
  O      255.008    -292.904     428.057
  C      255.373    -290.551     428.434
  O      255.904    -290.835     429.751
  C      256.585    -290.466     427.517
  O      256.305    -289.781     426.309
  C      257.579    -289.739     428.410
  O      257.379    -288.319     428.369
  C      257.243    -290.286     429.802
  N      260.893    -291.391     433.197
  C      260.069    -290.325     433.069
  N      259.116    -290.111     432.142
  C      259.027    -291.159     431.301
  C      259.794    -292.310     431.310
  C      260.768    -292.411     432.315
  N      261.625    -293.483     432.429
  N      259.436    -293.138     430.259
  C      258.467    -292.498     429.637
  N      258.184    -291.300     430.230
  O      255.248    -295.373     427.605
  O      252.917    -294.471     428.166
  H      257.349    -288.073     427.423
  H      254.766    -296.207     427.757
  H      260.204    -289.538     433.805
  H      257.950    -292.854     428.753
  H      257.241    -289.497     430.568
  H      258.602    -289.938     428.098
  H      256.970    -291.471     427.311
  H      254.851    -289.585     428.478
  H      253.540    -291.632     428.750
  H      253.979    -291.446     427.033
  H      262.342    -293.459     433.132
  H      261.614    -294.194     431.711
  P      256.280    -290.642     424.954
  C      258.815    -290.276     424.444
  O      257.466    -290.098     424.028
  O      254.956    -290.147     424.211
  O      256.286    -292.121     425.159
  H      254.543    -290.893     423.734
  H      259.472    -289.856     423.712
  H      259.021    -291.321     424.550
  H      258.966    -289.785     425.383

 6  7  8  9  10  11  12  13  14  15  25  28  32  33  34  35 0
 6-311+G(2d,p)
 ****
 36  37  40 0
 6-311+G(2d,p)
 ****
 1  2  3  4  5  16  17  18  19  20  21  22  23  24 0
 3-21G
 ****
 26  27  29  30  31  38  39 41  42  43  44  45  46  47  48 0
 3-21G
 ****


