%nproc=1
%NoSave
%Mem=1900MB
#P OB98/GEN NMR

erre ene a

0 1
  C      172.754      65.118     171.136
  O      173.246      63.928     171.708
  P      174.059      63.963     173.091
  C      174.984      61.813     172.019
  O      174.768      62.528     173.230
  C      176.266      60.993     172.115
  O      177.432      61.854     172.188
  C      176.360      60.131     173.365
  O      175.442      59.068     173.491
  C      177.838      59.775     173.370
  O      178.117      58.695     172.480
  C      178.473      61.088     172.844
  N      179.116      61.849     173.913
  C      180.398      61.441     174.263
  O      180.985      60.502     173.727
  N      180.986      62.135     175.286
  C      180.413      63.142     176.006
  O      180.982      63.689     176.941
  C      179.051      63.516     175.600
  C      178.472      62.865     174.589
  O      173.266      64.382     174.282
  O      175.299      64.922     172.763
  H      177.665      57.902     172.829
  H      175.873      64.613     172.040
  H      181.911      61.847     175.565
  H      178.571      64.321     176.143
  H      177.465      63.124     174.273
  H      179.228      60.865     172.080
  H      178.179      59.470     174.365
  H      176.184      60.775     174.237
  H      176.362      60.397     171.204
  H      175.079      62.529     171.196
  H      174.117      61.176     171.812
  P      174.285      59.028     174.598
  C      174.655      56.788     175.848
  O      173.911      57.496     174.881
  O      173.158      59.992     174.425
  O      175.101      59.417     175.927
  H      174.507      59.896     176.535
  H      174.296      55.755     175.878
  H      174.518      57.233     176.837
  H      175.716      56.780     175.585
  H      172.244      64.891     170.223
  H      173.570      65.780     170.933
  H      172.075      65.587     171.817

 3  4  5  6  7  8  9  10  11  12  13  23  28  29  30  31  32 0
 6-311+G(2d,p)
 ****
 33  34 0
 6-311+G(2d,p)
 ****
 1  2  14  15  16  17  18  19  20  21  22  24  25  26  27 0
 3-21G
 ****
 35  36  37  38  39  40  41  42  43  44  45 0
 3-21G
 ****


