%nproc=1
%NoSave
%Mem=1900MB
#P OB98/GEN NMR

erre ene a

0 1
  C     -483.189     307.636      29.261
  O     -482.737     306.297      29.252
  H     -482.345     308.292      29.044
  H     -483.588     307.890      30.247
  H     -483.958     307.793      28.498
  P     -483.817     305.117      29.362
  C     -485.574     305.672      27.552
  O     -484.424     304.909      27.892
  C     -485.927     305.488      26.072
  O     -487.143     306.256      25.786
  C     -484.843     305.981      25.094
  O     -484.941     305.167      23.915
  C     -485.318     307.397      24.827
  O     -484.651     308.000      23.746
  C     -486.825     307.137      24.686
  N     -487.670     308.322      24.715
  C     -487.944     308.952      23.507
  O     -487.525     308.574      22.411
  N     -488.739     310.067      23.581
  C     -489.284     310.592      24.716
  O     -490.015     311.571      24.722
  C     -488.953     309.885      25.967
  C     -488.180     308.803      25.907
  O     -484.828     305.257      30.450
  O     -482.920     303.802      29.558
  H     -482.927     303.542      30.499
  H     -483.688     308.003      23.924
  H     -488.950     310.531      22.713
  H     -489.360     310.281      26.885
  H     -487.931     308.252      26.814
  H     -487.020     306.580      23.762
  H     -485.111     308.031      25.697
  H     -483.832     305.909      25.501
  H     -486.172     304.435      25.895
  H     -485.352     306.730      27.750
  H     -486.411     305.361      28.184
  P     -483.839     304.077      23.498
  C     -483.598     302.301      25.361
  O     -484.250     302.672      24.154
  O     -482.434     304.491      23.798
  O     -484.049     303.845      21.928
  H     -483.210     303.549      21.526
  H     -483.964     301.350      25.686
  H     -483.796     303.035      26.114
  H     -482.543     302.239      25.192

 6  7  8  9  10  11  12  13  14  15  16  27  31  32  33  34  35 0
 6-311+G(2d,p)
 ****
 36  37 0
 6-311+G(2d,p)
 ****
 1  2  3  4  5  17  18  19  20  21  22  23  24  25 0
 3-21G
 ****
 26  28  29  30  38  39  40  41  42  43  44  45 0
 3-21G
 ****


