%nproc=1
%NoSave
%Mem=1900MB
#P OB98/GEN NMR

erre ene a

0 1
  C      -18.662      39.179      58.866
  O      -18.672      38.317      60.012
  P      -20.018      37.828      60.739
  C      -22.063      38.942      61.869
  O      -20.745      39.117      61.362
  C      -22.247      39.712      63.180
  O      -21.547      39.045      64.257
  C      -21.681      41.125      63.188
  O      -22.468      42.027      62.432
  C      -21.648      41.424      64.686
  O      -22.919      41.894      65.155
  C      -21.343      40.038      65.290
  N      -20.006      39.944      65.849
  C      -19.841      40.403      67.159
  O      -20.777      40.933      67.757
  N      -18.611      40.263      67.753
  C      -17.610      39.807      67.065
  N      -16.421      39.674      67.711
  C      -17.712      39.440      65.640
  C      -18.926      39.530      65.102
  O      -19.808      36.724      61.723
  O      -20.994      37.369      59.557
  H      -21.622      36.702      59.892
  H      -23.547      41.150      65.061
  H      -16.843      39.105      65.092
  H      -19.093      39.267      64.062
  H      -22.077      39.798      66.068
  H      -20.907      42.190      64.936
  H      -20.656      41.106      62.798
  H      -23.319      39.729      63.417
  H      -16.388      39.925      68.692
  H      -22.221      37.875      62.062
  H      -15.587      39.308      67.275
  H      -22.786      39.271      61.116
  P      -21.941      42.397      60.963
  C      -20.011      43.816      59.965
  O      -20.652      43.333      61.130
  O      -23.065      43.389      60.398
  O      -21.751      41.222      60.060
  H      -23.216      43.207      59.452
  H      -19.517      44.762      60.205
  H      -20.722      43.983      59.151
  H      -19.255      43.095      59.645
  H      -17.651      39.361      58.566
  H      -19.133      40.107      59.114
  H      -19.194      38.712      58.064

 3  4  5  6  7  8  9  10  11  12  13  24  27  28  29  30  32 0
 6-311+G(2d,p)
 ****
 34  35 0
 6-311+G(2d,p)
 ****
 1  2  14  15  16  17  18  19  20  21  22  23  25  26 0
 3-21G
 ****
 31  33  36  37  38  39  40  41  42  43  44  45  46 0
 3-21G
 ****


