%nproc=1
%NoSave
%Mem=1900MB
#P OB98/GEN NMR

erre ene a

0 1
  C      -49.291     -27.642     -15.592
  O      -48.761     -26.337     -15.461
  H      -49.300     -28.116     -14.606
  H      -48.680     -28.246     -16.266
  H      -50.317     -27.592     -15.964
  P      -48.384     -25.537     -16.800
  C      -49.757     -24.816     -18.860
  O      -49.635     -25.747     -17.789
  C      -50.162     -25.514     -20.157
  O      -49.109     -26.389     -20.616
  C      -51.382     -26.411     -20.027
  O      -52.589     -25.731     -19.765
  C      -51.270     -27.276     -21.273
  O      -51.795     -26.631     -22.432
  C      -49.734     -27.430     -21.401
  N      -49.275     -28.755     -21.003
  C      -48.852     -29.588     -22.031
  O      -48.873     -29.266     -23.220
  N      -48.428     -30.833     -21.654
  C      -48.432     -31.328     -20.383
  O      -48.058     -32.463     -20.113
  C      -48.927     -30.415     -19.342
  C      -49.319     -29.186     -19.692
  O      -47.061     -25.887     -17.413
  O      -48.511     -24.000     -16.377
  H      -52.702     -26.342     -22.211
  H      -48.071     -23.410     -17.037
  H      -48.102     -31.448     -22.384
  H      -48.956     -30.778     -18.324
  H      -49.686     -28.493     -18.940
  H      -49.422     -27.262     -22.441
  H      -51.798     -28.226     -21.164
  H      -51.226     -27.081     -19.171
  H      -50.312     -24.747     -20.924
  H      -48.782     -24.336     -18.998
  H      -50.495     -24.051     -18.597
  P      -53.867     -26.417     -19.104
  C      -54.427     -27.579     -16.831
  O      -53.429     -27.076     -17.710
  O      -54.746     -27.211     -20.013
  O      -54.709     -25.128     -18.615
  H      -55.657     -25.353     -18.705
  H      -53.961     -27.980     -15.955
  H      -54.982     -28.349     -17.325
  H      -55.089     -26.786     -16.552

 6  7  8  9  10  11  12  13  14  15  16  26  31  32  33  34  35 0
 6-311+G(2d,p)
 ****
 36  37 0
 6-311+G(2d,p)
 ****
 1  2  3  4  5  17  18  19  20  21  22  23  24  25 0
 3-21G
 ****
 27  28  29  30  38  39  40  41  42  43  44  45 0
 3-21G
 ****


