%nproc=1
%NoSave
%Mem=1900MB
#P OB98/GEN NMR

erre ene a

0 1
  C       60.747    -142.049    -539.825
  O       61.342    -143.042    -540.635
  H       61.425    -141.192    -539.765
  H       60.577    -142.435    -538.816
  H       59.801    -141.718    -540.262
  P       60.506    -144.399    -540.830
  C       59.696    -144.040    -543.267
  O       59.349    -144.064    -541.890
  C       59.046    -142.846    -543.963
  O       59.597    -141.602    -543.468
  C       59.218    -142.829    -545.475
  O       58.255    -143.649    -546.112
  C       59.015    -141.349    -545.780
  O       57.617    -141.002    -545.826
  C       59.707    -140.679    -544.582
  N       62.815    -137.454    -546.914
  C       61.436    -137.463    -546.839
  N       60.787    -136.503    -547.532
  N       60.751    -138.345    -546.155
  C       61.532    -139.267    -545.539
  C       62.909    -139.348    -545.526
  C       63.652    -138.349    -546.263
  O       64.873    -138.247    -546.316
  N       63.333    -140.415    -544.773
  C       62.219    -140.993    -544.364
  N       61.101    -140.344    -544.819
  O       59.706    -144.548    -539.449
  O       61.317    -145.613    -541.125
  H       57.149    -141.633    -546.393
  H       59.573    -145.495    -539.260
  H       63.285    -136.737    -547.443
  H       62.173    -141.877    -543.745
  H       59.205    -139.748    -544.283
  H       59.438    -141.076    -546.750
  H       61.221    -136.034    -548.313
  H       60.240    -143.123    -545.756
  H       59.778    -136.518    -547.499
  H       57.980    -142.854    -543.699
  H       59.348    -144.963    -543.740
  H       60.788    -143.980    -543.362
  P       58.792    -144.787    -547.114
  C       57.273    -146.747    -546.335
  O       58.578    -146.186    -546.367
  O       60.382    -144.590    -547.079
  O       58.246    -144.703    -548.501
  H       60.791    -145.033    -547.846
  H       57.297    -147.675    -545.803
  H       56.934    -146.918    -547.335
  H       56.606    -146.071    -545.843

 6  7  8  9  10  11  12  13  14  15  26  29  33  34 0
 6-311+G(2d,p)
 ****
 36  38  39  40  41 0
 6-311+G(2d,p)
 ****
 1  2  3  4  5  16  17  18  19  20  21  22  23  24  25 0
 3-21G
 ****
 27  28  30  31  32  35  37  42  43  44  45  46  47 0
 3-21G
 ****
 48  49 0
 3-21G
 ****


