%nproc=1
%NoSave
%Mem=1900MB
#P OB98/GEN NMR

erre ene a

0 1
  C      310.252    -895.860     536.112
  O      310.144    -896.890     535.146
  P      308.660    -897.410     534.787
  C      308.905    -896.670     532.283
  O      308.196    -896.540     533.504
  C      307.989    -897.230     531.201
  O      306.743    -896.510     531.177
  C      308.559    -897.140     529.796
  O      309.462    -898.200     529.544
  C      307.299    -897.200     528.947
  O      306.844    -898.560     528.786
  C      306.307    -896.390     529.797
  N      303.714    -892.960     527.127
  C      303.611    -894.350     527.140
  N      302.659    -894.880     526.351
  N      304.390    -895.120     527.859
  C      305.305    -894.430     528.564
  C      305.518    -893.070     528.628
  C      304.625    -892.230     527.892
  O      304.602    -891.000     527.910
  N      306.542    -892.760     529.480
  C      306.966    -893.920     529.930
  N      306.227    -894.980     529.426
  O      307.779    -896.810     535.983
  O      308.520    -898.880     534.629
  H      306.747    -898.970     529.673
  H      307.617    -897.500     536.659
  H      303.080    -892.410     526.571
  H      307.774    -894.080     530.623
  H      305.287    -896.780     529.737
  H      307.453    -896.810     527.933
  H      302.052    -894.340     525.756
  H      309.053    -896.170     529.643
  H      302.580    -895.890     526.353
  H      307.758    -898.270     531.453
  H      309.765    -897.360     532.428
  H      309.296    -895.690     531.997
  P      310.987    -897.850     529.205
  C      312.133    -899.270     531.058
  O      311.826    -897.970     530.564
  O      310.931    -896.260     528.950
  O      311.556    -898.590     528.033
  H      311.577    -896.040     528.231
  H      313.068    -899.220     531.615
  H      312.235    -900.000     530.244
  H      311.343    -899.600     531.732
  H      311.283    -895.611     536.255
  H      309.834    -896.195     537.039
  H      309.720    -894.996     535.773

 3  4  5  6  7  8  9  10  11  12  23  26  30  31 0
 6-311+G(2d,p)
 ****
 33  35  36  37  38 0
 6-311+G(2d,p)
 ****
 1  2  13  14  15  16  17  18  19  20  21  22  24  25 0
 3-21G
 ****
 27  28  29  32  34  39  40  41  42  43  44  45  46  47  48  49 0
 3-21G
 ****


