%nproc=1
%NoSave
%Mem=1900MB
#P OB98/GEN NMR

erre ene a

0 1
  C     -149.026     863.014    -217.058
  O     -149.015     864.293    -216.446
  H     -147.992     862.693    -217.202
  H     -149.518     863.070    -218.030
  H     -149.535     862.283    -216.423
  P     -150.409     864.936    -215.982
  C     -149.477     867.286    -216.510
  O     -150.104     866.448    -215.538
  C     -149.147     868.641    -215.880
  O     -150.354     869.291    -215.431
  C     -148.248     868.543    -214.649
  O     -146.903     868.306    -215.019
  C     -148.496     869.898    -213.996
  O     -147.711     870.923    -214.633
  C     -150.008     870.103    -214.279
  N     -150.839     869.768    -213.123
  C     -150.867     870.692    -212.082
  O     -150.202     871.735    -212.099
  N     -151.662     870.373    -211.020
  C     -152.331     869.192    -210.842
  O     -152.952     868.919    -209.821
  C     -152.241     868.240    -211.952
  C     -151.517     868.574    -213.030
  O     -151.192     864.138    -214.996
  O     -151.215     865.122    -217.354
  H     -146.780     870.725    -214.417
  H     -151.906     864.437    -217.421
  H     -151.684     871.033    -210.251
  H     -152.770     867.296    -211.852
  H     -151.444     867.871    -213.857
  H     -150.202     871.143    -214.561
  H     -148.238     869.906    -212.938
  H     -148.604     867.757    -213.973
  H     -148.686     869.280    -216.649
  H     -150.168     867.434    -217.341
  H     -148.566     866.796    -216.878
  P     -146.245     866.867    -214.756
  C     -143.985     868.009    -214.252
  O     -144.667     866.993    -214.998
  O     -146.907     865.720    -215.452
  O     -146.344     866.690    -213.166
  H     -146.891     865.898    -212.955
  H     -142.944     867.994    -214.498
  H     -144.106     867.825    -213.205
  H     -144.396     868.967    -214.496

 6  7  8  9  10  11  12  13  14  15  16  26  31  32  33  34  35 0
 6-311+G(2d,p)
 ****
 36  37 0
 6-311+G(2d,p)
 ****
 1  2  3  4  5  17  18  19  20  21  22  23  24  25 0
 3-21G
 ****
 27  28  29  30  38  39  40  41  42  43  44  45 0
 3-21G
 ****


