%nproc=1
%NoSave
%Mem=1900MB
#P OB98/GEN NMR

erre ene a

0 1
  C      321.156    -188.476     -68.034
  O      321.652    -187.178     -67.760
  P      322.992    -186.972     -66.914
  C      323.966    -184.948     -68.273
  O      323.452    -185.452     -67.060
  C      323.746    -183.431     -68.314
  O      322.364    -183.136     -68.616
  C      324.085    -182.777     -66.976
  O      325.418    -182.293     -66.980
  C      323.042    -181.679     -66.871
  O      323.444    -180.526     -67.634
  C      321.812    -182.353     -67.524
  N      320.985    -183.249     -66.693
  C      320.190    -182.714     -65.686
  O      320.102    -181.510     -65.451
  N      319.503    -183.624     -64.919
  C      319.504    -184.977     -65.101
  O      319.090    -185.785     -64.277
  C      320.138    -185.450     -66.336
  C      320.855    -184.585     -67.049
  O      324.084    -187.771     -67.767
  O      322.935    -187.442     -65.497
  H      323.622    -180.831     -68.541
  H      324.236    -188.658     -67.387
  H      319.034    -183.251     -64.101
  H      320.041    -186.495     -66.593
  H      321.365    -184.921     -67.948
  H      321.139    -181.606     -67.959
  H      322.932    -181.339     -65.844
  H      323.928    -183.489     -66.158
  H      324.363    -183.003     -69.113
  H      323.468    -185.430     -69.121
  H      325.035    -185.176     -68.350
  P      326.464    -182.842     -65.902
  C      328.518    -182.512     -67.400
  O      327.843    -182.095     -66.229
  O      326.550    -184.329     -65.791
  O      325.968    -182.171     -64.535
  H      325.419    -182.812     -64.032
  H      329.331    -181.813     -67.605
  H      327.834    -182.526     -68.254
  H      328.937    -183.510     -67.245
  H      320.257    -188.400     -68.609
  H      320.950    -188.981     -67.113
  H      321.887    -189.028     -68.587

 3  4  5  6  7  8  9  10  11  12  13  23  28  29  30  31  32 0
 6-311+G(2d,p)
 ****
 33  34 0
 6-311+G(2d,p)
 ****
 1  2  14  15  16  17  18  19  20  21  22  24  25  26  27 0
 3-21G
 ****
 35  36  37  38  39  40  41  42  43  44  45 0
 3-21G
 ****


