%nproc=1
%NoSave
%Mem=1900MB
#P OB98/GEN NMR

erre ene a

0 1
  C      -73.806      48.230    -186.732
  O      -72.443      48.172    -186.354
  H      -73.864      48.261    -187.824
  H      -74.286      49.126    -186.329
  H      -74.332      47.336    -186.382
  P      -72.083      48.375    -184.803
  C      -69.716      49.313    -185.249
  O      -70.482      48.234    -184.713
  C      -68.223      49.115    -184.976
  O      -67.977      49.080    -183.558
  C      -67.673      47.799    -185.513
  O      -67.613      47.723    -186.920
  C      -66.400      47.618    -184.695
  O      -65.269      48.283    -185.250
  C      -66.790      48.280    -183.349
  N      -66.969      47.301    -182.285
  C      -65.820      46.649    -181.857
  O      -64.705      46.849    -182.348
  N      -65.995      45.719    -180.875
  C      -67.186      45.347    -180.321
  O      -67.283      44.470    -179.470
  C      -68.374      46.051    -180.833
  C      -68.217      46.984    -181.774
  O      -72.820      47.494    -183.839
  O      -72.323      49.938    -184.556
  H      -65.535      49.209    -185.411
  H      -72.394      50.139    -183.590
  H      -65.168      45.242    -180.542
  H      -69.345      45.782    -180.420
  H      -69.075      47.520    -182.170
  H      -66.002      48.976    -183.031
  H      -66.132      46.563    -184.595
  H      -68.353      46.995    -185.202
  H      -67.678      49.970    -185.394
  H      -70.052      50.237    -184.761
  H      -69.901      49.396    -186.326
  P      -68.508      46.723    -187.784
  C      -66.406      46.872    -189.312
  O      -67.771      46.491    -189.200
  O      -69.987      46.954    -187.773
  O      -68.233      45.323    -187.032
  H      -69.058      44.798    -187.078
  H      -66.056      46.660    -190.301
  H      -65.823      46.323    -188.602
  H      -66.311      47.920    -189.118

 6  7  8  9  10  11  12  13  14  15  16  26  31  32  33  34  35 0
 6-311+G(2d,p)
 ****
 36  37 0
 6-311+G(2d,p)
 ****
 1  2  3  4  5  17  18  19  20  21  22  23  24  25 0
 3-21G
 ****
 27  28  29  30  38  39  40  41  42  43  44  45 0
 3-21G
 ****


