%nproc=1
%NoSave
%Mem=1900MB
#P OB98/GEN NMR

erre ene a

0 1
  C      -41.249      -9.067     -74.650
  O      -41.212     -10.387     -75.154
  H      -42.101      -8.545     -75.094
  H      -40.331      -8.536     -74.918
  H      -41.370      -9.080     -73.563
  P      -40.010     -11.316     -74.638
  C      -38.616     -10.741     -76.748
  O      -38.678     -10.746     -75.329
  C      -37.467      -9.860     -77.228
  O      -37.809      -8.461     -77.102
  C      -36.161     -10.059     -76.468
  O      -35.443     -11.174     -76.968
  C      -35.456      -8.737     -76.738
  O      -34.827      -8.729     -78.035
  C      -36.620      -7.737     -76.689
  N      -35.443      -3.824     -73.725
  C      -35.096      -4.086     -75.033
  N      -34.268      -3.196     -75.623
  N      -35.512      -5.128     -75.702
  C      -36.308      -5.946     -74.973
  C      -36.737      -5.788     -73.675
  C      -36.293      -4.612     -72.958
  O      -36.617      -4.289     -71.819
  N      -37.551      -6.822     -73.292
  C      -37.583      -7.622     -74.340
  N      -36.829      -7.142     -75.380
  O      -40.254     -12.703     -75.402
  O      -39.939     -11.508     -73.161
  H      -34.431      -7.855     -78.193
  H      -39.930     -13.435     -74.845
  H      -35.105      -2.995     -73.270
  H      -38.131      -8.552     -74.395
  H      -36.482      -6.910     -77.394
  H      -34.668      -8.544     -76.008
  H      -33.669      -2.589     -75.081
  H      -36.348     -10.159     -75.392
  H      -33.989      -3.393     -76.576
  H      -37.323     -10.062     -78.298
  H      -39.559     -10.350     -77.144
  H      -38.478     -11.767     -77.105
  P      -34.616     -12.062     -75.915
  C      -32.511     -10.615     -76.402
  O      -33.389     -11.154     -75.424
  O      -33.912     -13.165     -76.835
  O      -35.442     -12.673     -74.834
  H      -33.608     -13.914     -76.286
  H      -31.751     -10.037     -75.919
  H      -33.064      -9.989     -77.071
  H      -32.057     -11.413     -76.952

 6  7  8  9  10  11  12  13  14  15  26  29  33  34 0
 6-311+G(2d,p)
 ****
 36  38  39  40  41 0
 6-311+G(2d,p)
 ****
 1  2  3  4  5  16  17  18  19  20  21  22  23  24  25 0
 3-21G
 ****
 27  28  30  31  32  35  37  42  43  44  45  46  47 0
 3-21G
 ****
 48  49 0
 3-21G
 ****


