%nproc=1
%NoSave
%Mem=1900MB
#P OB98/GEN NMR

erre ene a

0 1
  C        5.108     -21.756      23.647
  O        5.531     -21.177      22.426
  P        6.661     -21.930      21.572
  C        5.353     -24.175      21.191
  O        6.436     -23.501      21.804
  C        5.672     -25.666      21.041
  O        4.448     -26.379      20.713
  C        6.698     -25.989      19.947
  O        7.473     -27.103      20.409
  C        5.823     -26.398      18.776
  O        6.515     -27.195      17.827
  C        4.690     -27.127      19.506
  N        3.464     -27.236      18.716
  C        3.380     -28.266      17.785
  O        4.282     -29.074      17.574
  N        2.213     -28.325      17.068
  C        1.178     -27.439      17.138
  O        0.165     -27.530      16.458
  C        1.345     -26.344      18.104
  C        2.455     -26.300      18.842
  O        7.970     -21.593      22.426
  O        6.715     -21.508      20.144
  H        7.802     -21.564      23.384
  H        6.745     -28.040      18.254
  H        2.115     -29.087      16.413
  H        0.551     -25.611      18.179
  H        2.600     -25.502      19.559
  H        5.021     -28.127      19.809
  H        5.458     -25.501      18.264
  H        7.355     -25.145      19.726
  H        6.017     -26.043      22.012
  H        5.173     -23.749      20.201
  H        4.449     -24.028      21.791
  P        9.003     -27.216      19.922
  C       10.184     -26.422      22.118
  O        9.855     -26.161      20.773
  O        8.895     -26.510      18.485
  O        9.538     -28.607      19.845
  H        8.420     -25.664      18.515
  H       11.020     -25.779      22.407
  H       10.481     -27.464      22.263
  H        9.328     -26.194      22.758
  H        4.356     -21.139      24.093
  H        5.943     -21.838      24.311
  H        4.705     -22.729      23.459

 3  4  5  6  7  8  9  10  11  12  13  24  28  29  30  31  32 0
 6-311+G(2d,p)
 ****
 33  34 0
 6-311+G(2d,p)
 ****
 1  2  14  15  16  17  18  19  20  21  22  23  25  26  27 0
 3-21G
 ****
 35  36  37  38  39  40  41  42  43  44  45 0
 3-21G
 ****


