%nproc=1
%NoSave
%Mem=1900MB
#P OB98/GEN NMR

erre ene a

0 1
  C      -22.387      29.932      32.491
  O      -22.978      28.737      32.021
  H      -21.753      30.344      31.701
  H      -21.766      29.721      33.366
  H      -23.157      30.664      32.748
  P      -24.081      28.056      32.960
  C      -24.536      26.014      31.375
  O      -24.077      26.482      32.636
  C      -23.995      24.611      31.112
  O      -22.556      24.614      31.024
  C      -24.287      23.619      32.225
  O      -25.646      23.249      32.286
  C      -23.354      22.483      31.835
  O      -23.913      21.696      30.774
  C      -22.113      23.266      31.339
  N      -21.030      23.267      32.312
  C      -20.458      22.019      32.589
  O      -20.865      21.009      32.016
  N      -19.460      21.947      33.528
  C      -19.050      23.025      34.120
  N      -18.066      22.884      35.046
  C      -19.607      24.363      33.839
  C      -20.587      24.409      32.939
  O      -25.453      28.549      32.303
  O      -23.951      28.356      34.417
  H      -24.735      21.303      31.127
  H      -25.519      28.361      31.352
  H      -19.228      25.235      34.350
  H      -21.051      25.350      32.675
  H      -21.731      22.833      30.406
  H      -23.163      21.804      32.667
  H      -23.945      24.019      33.188
  H      -24.397      24.266      30.150
  H      -17.722      21.949      35.228
  H      -24.242      26.698      30.573
  H      -17.692      23.646      35.593
  H      -25.630      25.996      31.408
  P      -26.222      22.462      33.558
  C      -28.321      23.910      33.906
  O      -27.818      22.638      33.511
  O      -25.596      22.820      34.863
  O      -26.040      20.923      33.150
  H      -26.515      20.657      32.343
  H      -29.389      23.909      33.835
  H      -27.921      24.667      33.264
  H      -28.031      24.110      34.916

 6  7  8  9  10  11  12  13  14  15  16  26  30  31  32  33  35 0
 6-311+G(2d,p)
 ****
 37  38 0
 6-311+G(2d,p)
 ****
 1  2  3  4  5  17  18  19  20  21  22  23  24  25 0
 3-21G
 ****
 27  28  29  34  36  39  40  41  42  43  44  45  46 0
 3-21G
 ****


