%nproc=1
%NoSave
%Mem=1900MB
#P OB98/GEN NMR

erre ene a

0 1
  C      -28.786      16.083    -231.440
  O      -28.442      14.713    -231.390
  H      -29.845      16.189    -231.192
  H      -28.622      16.470    -232.449
  H      -28.195      16.656    -230.721
  P      -26.887      14.341    -231.491
  C      -25.529      12.175    -231.013
  O      -26.789      12.744    -231.337
  C      -25.703      11.097    -229.943
  O      -26.029      11.747    -228.681
  C      -26.824      10.093    -230.245
  O      -26.416       8.806    -229.768
  C      -27.974      10.596    -229.392
  O      -28.937       9.602    -229.076
  C      -27.218      11.116    -228.165
  N      -28.009      12.055    -227.372
  C      -28.771      11.532    -226.334
  O      -28.759      10.355    -225.979
  N      -29.577      12.431    -225.681
  C      -29.709      13.755    -225.977
  O      -30.466      14.504    -225.369
  C      -28.888      14.247    -227.092
  C      -28.089      13.388    -227.729
  O      -26.297      14.883    -230.107
  O      -26.170      14.895    -232.677
  H      -26.006      15.810    -230.200
  H      -29.563       9.994    -228.433
  H      -30.135      12.067    -224.926
  H      -28.976      15.292    -227.361
  H      -27.486      13.713    -228.570
  H      -26.897      10.281    -227.533
  H      -28.490      11.415    -229.908
  H      -27.094      10.027    -231.303
  H      -24.745      10.584    -229.801
  H      -24.867      12.955    -230.628
  H      -25.084      11.746    -231.918
  P      -25.686       7.830    -230.815
  C      -23.583       6.367    -230.260
  O      -24.911       6.746    -229.923
  O      -24.533       8.785    -231.373
  O      -26.615       7.282    -231.847
  H      -24.180       9.390    -230.699
  H      -23.231       5.640    -229.559
  H      -22.948       7.228    -230.230
  H      -23.571       5.948    -231.245

 6  7  8  9  10  11  12  13  14  15  16  27  31  32  33  34  35 0
 6-311+G(2d,p)
 ****
 36  37 0
 6-311+G(2d,p)
 ****
 1  2  3  4  5  17  18  19  20  21  22  23  24  25 0
 3-21G
 ****
 26  28  29  30  38  39  40  41  42  43  44  45 0
 3-21G
 ****


