%nproc=1
%NoSave
%Mem=1900MB
#P OB98/GEN NMR

erre ene a

0 1
  C       -0.839     100.762     156.960
  O       -0.146     100.890     155.734
  H       -0.109     100.668     157.768
  H       -1.466      99.866     156.947
  H       -1.455     101.647     157.140
  P       -1.052     100.979     154.412
  C        0.108      98.975     153.244
  O       -0.168     100.369     153.219
  C        0.752      98.533     151.933
  O       -0.048      98.949     150.805
  C        2.156      99.086     151.705
  O        3.126      98.295     152.370
  C        2.263      99.000     150.190
  O        2.584      97.657     149.769
  C        0.846      99.386     149.743
  N       -0.834     102.748     146.371
  C       -0.708     101.375     146.276
  N       -1.057     100.815     145.097
  N       -0.270     100.617     147.246
  C        0.096     101.316     148.346
  C        0.024     102.674     148.562
  C       -0.516     103.495     147.499
  O       -0.728     104.703     147.552
  N        0.475     103.002     149.816
  C        0.850     101.851     150.341
  N        0.646     100.799     149.485
  O       -1.079     102.548     154.084
  O       -2.432     100.431     154.543
  H        1.904      97.046     150.105
  H       -1.966     102.783     153.752
  H       -1.208     103.277     145.605
  H        1.262     101.725     151.333
  H        0.547      98.855     148.833
  H        3.060      99.640     149.807
  H       -1.118     101.354     144.246
  H        2.221     100.136     152.014
  H       -0.894      99.819     145.006
  H        0.768      97.435     151.928
  H       -0.831      98.433     153.390
  H        0.781      98.756     154.080
  P        3.916      98.943     153.604
  C        6.060      97.744     152.765
  O        5.228      98.058     153.871
  O        2.971      98.602     154.851
  O        4.144     100.414     153.495
  H        2.494      99.404     155.136
  H        6.888      97.154     153.098
  H        6.422      98.649     152.323
  H        5.497      97.193     152.041

 6  7  8  9  10  11  12  13  14  15  26  29  33  34 0
 6-311+G(2d,p)
 ****
 36  38  39  40  41 0
 6-311+G(2d,p)
 ****
 1  2  3  4  5  16  17  18  19  20  21  22  23  24  25 0
 3-21G
 ****
 27  28  30  31  32  35  37  42  43  44  45  46  47 0
 3-21G
 ****
 48  49 0
 3-21G
 ****


