%nproc=1
%NoSave
%Mem=1900MB
#P OB98/GEN NMR

erre ene a

0 1
  C      492.879    -767.722     434.748
  O      493.811    -767.930     435.792
  H      492.188    -766.929     435.053
  H      492.309    -768.635     434.570
  H      493.397    -767.411     433.836
  P      494.906    -769.079     435.551
  C      494.677    -771.250     434.142
  O      494.087    -770.390     435.106
  C      493.867    -772.537     434.009
  O      492.549    -772.258     433.480
  C      494.496    -773.579     433.098
  O      495.482    -774.335     433.778
  C      493.276    -774.410     432.721
  O      492.940    -775.365     433.751
  C      492.186    -773.343     432.581
  N      489.035    -773.101     428.645
  C      488.858    -773.659     429.896
  N      487.682    -774.287     430.108
  N      489.754    -773.610     430.842
  C      490.891    -772.972     430.472
  C      491.180    -772.369     429.278
  C      490.164    -772.401     428.235
  O      490.248    -771.874     427.133
  N      492.436    -771.814     429.286
  C      492.915    -772.115     430.481
  N      492.020    -772.835     431.232
  O      495.400    -769.445     437.032
  O      496.051    -768.704     434.667
  H      493.710    -775.928     433.935
  H      496.332    -769.728     436.998
  H      488.304    -773.159     427.952
  H      493.894    -771.837     430.842
  H      491.200    -773.713     432.903
  H      493.447    -774.995     431.803
  H      487.120    -774.644     429.339
  H      494.909    -773.112     432.193
  H      487.553    -774.723     431.015
  H      493.728    -772.945     435.021
  H      495.697    -771.493     434.462
  H      494.715    -770.729     433.175
  P      496.636    -775.031     432.897
  C      496.553    -776.570     430.801
  O      495.907    -776.137     431.995
  O      497.448    -775.895     433.974
  O      497.512    -774.070     432.167
  H      498.325    -776.139     433.610
  H      495.946    -777.304     430.313
  H      497.503    -776.997     431.044
  H      496.695    -775.734     430.149

 6  7  8  9  10  11  12  13  14  15  26  29  33  34 0
 6-311+G(2d,p)
 ****
 36  38  39  40  41 0
 6-311+G(2d,p)
 ****
 1  2  3  4  5  16  17  18  19  20  21  22  23  24  25 0
 3-21G
 ****
 27  28  30  31  32  35  37  42  43  44  45  46  47 0
 3-21G
 ****
 48  49 0
 3-21G
 ****


