%nproc=1
%NoSave
%Mem=1900MB
#P OB98/GEN NMR

erre ene a

0 1
  C      -42.486     305.475    -179.745
  O      -42.244     304.893    -178.480
  H      -41.579     305.995    -180.070
  H      -43.305     306.198    -179.694
  H      -42.724     304.697    -180.475
  P      -43.497     304.295    -177.671
  C      -42.400     302.118    -176.814
  O      -42.859     303.425    -176.477
  C      -41.149     301.754    -176.008
  O      -40.015     302.512    -176.484
  C      -41.255     302.083    -174.527
  O      -42.169     301.270    -173.821
  C      -39.796     302.127    -174.094
  O      -39.268     300.850    -173.744
  C      -39.098     302.647    -175.378
  N      -38.627     304.018    -175.229
  C      -37.330     304.163    -174.746
  O      -36.607     303.214    -174.439
  N      -36.891     305.448    -174.590
  C      -37.629     306.577    -174.811
  O      -37.191     307.705    -174.611
  C      -39.002     306.360    -175.292
  C      -39.435     305.108    -175.475
  O      -44.502     303.545    -178.492
  O      -44.103     305.564    -176.912
  H      -39.939     300.404    -173.193
  H      -45.022     305.385    -176.598
  H      -35.949     305.574    -174.254
  H      -39.617     307.231    -175.476
  H      -40.444     304.923    -175.831
  H      -38.229     302.018    -175.616
  H      -39.653     302.780    -173.232
  H      -41.631     303.110    -174.435
  H      -40.935     300.689    -176.163
  H      -42.151     302.115    -177.879
  H      -43.196     301.388    -176.633
  P      -43.128     301.826    -172.669
  C      -44.769     299.827    -172.890
  O      -43.924     300.584    -172.033
  O      -43.881     303.082    -172.968
  O      -42.061     302.173    -171.508
  H      -42.389     302.961    -171.031
  H      -45.229     299.039    -172.332
  H      -44.188     299.409    -173.685
  H      -45.526     300.464    -173.298

 6  7  8  9  10  11  12  13  14  15  16  26  31  32  33  34  35 0
 6-311+G(2d,p)
 ****
 36  37 0
 6-311+G(2d,p)
 ****
 1  2  3  4  5  17  18  19  20  21  22  23  24  25 0
 3-21G
 ****
 27  28  29  30  38  39  40  41  42  43  44  45 0
 3-21G
 ****


