%nproc=1
%NoSave
%Mem=1900MB
#P OB98/GEN NMR

erre ene a

0 1
  C     -162.703     440.339    -193.845
  O     -163.354     439.395    -193.013
  P     -164.684     438.697    -193.587
  C     -167.224     439.219    -193.434
  O     -165.895     439.702    -193.282
  C     -168.244     440.349    -193.298
  O     -167.937     441.387    -194.256
  C     -169.695     439.914    -193.524
  O     -170.523     440.646    -192.615
  C     -169.989     440.375    -194.939
  O     -171.383     440.573    -195.153
  C     -169.132     441.652    -195.017
  N     -168.822     442.024    -196.396
  C     -169.862     442.581    -197.148
  O     -170.989     442.662    -196.673
  N     -169.602     442.974    -198.438
  C     -168.439     442.737    -198.962
  N     -168.233     443.155    -200.244
  C     -167.354     442.040    -198.243
  C     -167.607     441.734    -196.967
  O     -164.929     437.499    -192.553
  O     -164.575     438.215    -194.996
  H     -171.514     440.832    -196.091
  H     -165.340     436.734    -192.999
  H     -166.417     441.832    -198.736
  H     -166.865     441.242    -196.354
  H     -169.652     442.492    -194.541
  H     -169.630     439.625    -195.657
  H     -169.844     438.837    -193.372
  H     -168.135     440.789    -192.298
  H     -168.994     443.612    -200.719
  H     -167.429     438.479    -192.660
  H     -167.358     443.008    -200.730
  H     -167.320     438.727    -194.409
  P     -171.989     440.073    -192.310
  C     -174.228     440.159    -193.568
  O     -172.824     440.333    -193.654
  O     -172.574     441.199    -191.336
  O     -172.103     438.715    -191.693
  H     -173.465     440.937    -191.024
  H     -174.679     440.500    -194.506
  H     -174.636     440.742    -192.745
  H     -174.463     439.097    -193.428
  H     -161.839     440.722    -193.342
  H     -163.374     441.143    -194.065
  H     -162.404     439.865    -194.756

 3  4  5  6  7  8  9  10  11  12  13  21  23  27  28  29  30  32 0
 6-311+G(2d,p)
 ****
 34  35 0
 6-311+G(2d,p)
 ****
 1  2  14  15  16  17  18  19  20  22  24  25  26 0
 3-21G
 ****
 31  33  36  37  38  39  40  41  42  43  44  45  46 0
 3-21G
 ****


