%nproc=1
%NoSave
%Mem=1900MB
#P OB98/GEN NMR

erre ene a

0 1
  C      -72.520     -13.631      12.419
  O      -71.480     -14.174      11.609
  P      -70.418     -15.262      12.087
  C      -69.266     -16.407      10.020
  O      -69.263     -15.366      10.987
  C      -70.005     -15.975       8.745
  O      -69.438     -14.711       8.282
  C      -69.848     -16.985       7.602
  O      -71.049     -17.211       6.873
  C      -68.659     -16.439       6.829
  O      -68.578     -16.927       5.499
  C      -68.846     -14.932       6.982
  N      -64.683     -14.014       4.177
  C      -65.644     -14.991       4.021
  N      -65.474     -15.851       2.995
  N      -66.675     -15.126       4.812
  C      -66.685     -14.254       5.842
  C      -65.782     -13.251       6.112
  C      -64.671     -13.078       5.202
  O      -63.802     -12.215       5.282
  N      -66.128     -12.559       7.245
  C      -67.225     -13.153       7.669
  N      -67.609     -14.185       6.844
  O      -70.982     -16.546      12.593
  O      -69.667     -14.545      13.322
  H      -67.732     -16.624       5.121
  H      -69.418     -15.258      13.943
  H      -63.921     -13.942       3.524
  H      -67.787     -12.871       8.551
  H      -69.526     -14.523       6.232
  H      -67.749     -16.766       7.347
  H      -64.643     -15.881       2.426
  H      -69.596     -17.977       7.994
  H      -66.053     -16.691       3.019
  H      -71.058     -15.804       8.988
  H      -69.789     -17.249      10.485
  H      -68.249     -16.731       9.797
  P      -71.607     -18.581       6.271
  C      -74.136     -18.326       6.607
  O      -73.070     -18.317       5.677
  O      -71.900     -19.505       7.543
  O      -70.675     -19.274       5.332
  H      -71.342     -20.307       7.503
  H      -75.079     -18.403       6.060
  H      -74.132     -17.393       7.178
  H      -74.050     -19.176       7.288
  H      -73.084     -12.923      11.848
  H      -72.092     -13.143      13.269
  H      -73.165     -14.419      12.748

 3  4  5  6  7  8  9  10  11  12  23  26  30  31 0
 6-311+G(2d,p)
 ****
 33  35  36  37  38 0
 6-311+G(2d,p)
 ****
 1  2  13  14  15  16  17  18  19  20  21  22  24  25 0
 3-21G
 ****
 27  28  29  32  34  39  40  41  42  43  44  45  46  47  48  49 0
 3-21G
 ****


