%nproc=1
%NoSave
%Mem=1900MB
#P OB98/GEN NMR

erre ene a

0 1
  C      275.767      -6.408    -272.384
  O      277.030      -5.777    -272.439
  H      275.636      -7.009    -273.292
  H      274.975      -5.657    -272.346
  H      275.695      -7.069    -271.516
  P      277.590      -5.058    -271.119
  C      277.168      -2.644    -271.934
  O      278.138      -3.619    -271.583
  C      277.829      -1.448    -272.631
  O      278.168      -0.452    -271.618
  C      279.134      -1.803    -273.382
  O      279.223      -0.923    -274.515
  C      280.171      -1.455    -272.334
  O      281.469      -1.387    -272.882
  C      279.573      -0.157    -271.786
  N      280.179       0.284    -270.529
  C      281.121       1.301    -270.602
  O      281.453       1.860    -271.645
  N      281.694       1.665    -269.406
  C      281.421       1.110    -268.191
  O      281.952       1.485    -267.146
  C      280.437       0.018    -268.184
  C      279.864      -0.338    -269.343
  O      278.542      -5.857    -270.296
  O      276.260      -4.683    -270.299
  H      276.103      -5.365    -269.617
  H      282.135      -1.306    -272.162
  H      282.383       2.399    -269.436
  H      280.212      -0.454    -267.237
  H      279.135      -1.143    -269.376
  H      279.649       0.650    -272.525
  H      280.204      -2.226    -271.556
  H      279.163      -2.842    -273.720
  H      277.102      -0.984    -273.307
  H      276.667      -2.307    -271.020
  H      276.425      -3.100    -272.603
  P      278.724      -1.327    -275.985
  C      281.039      -1.272    -277.120
  O      279.733      -0.715    -277.076
  O      277.291      -0.984    -276.247
  O      278.945      -2.910    -276.096
  H      278.231      -3.297    -276.625
  H      281.610      -0.783    -277.882
  H      280.974      -2.317    -277.339
  H      281.517      -1.135    -276.173

 6  7  8  9  10  11  12  13  14  15  16  27  31  32  33  34  35 0
 6-311+G(2d,p)
 ****
 36  37 0
 6-311+G(2d,p)
 ****
 1  2  3  4  5  17  18  19  20  21  22  23  24  25 0
 3-21G
 ****
 26  28  29  30  38  39  40  41  42  43  44  45 0
 3-21G
 ****


