%nproc=1
%NoSave
%Mem=1900MB
#P OB98/GEN NMR

erre ene a

0 1
  C      225.607      31.948      -8.450
  O      224.580      32.099      -9.404
  P      224.894      31.956     -10.970
  C      223.509      31.491     -13.090
  O      223.516      31.511     -11.665
  C      222.303      30.707     -13.598
  O      222.298      29.355     -13.067
  C      220.961      31.282     -13.167
  O      220.602      32.546     -13.682
  C      220.029      30.120     -13.467
  O      219.681      30.075     -14.849
  C      220.919      28.906     -13.093
  N      220.520      28.309     -11.822
  C      219.785      27.132     -11.905
  O      219.473      26.597     -12.969
  N      219.385      26.590     -10.712
  C      219.603      27.124      -9.476
  O      219.175      26.609      -8.451
  C      220.370      28.377      -9.452
  C      220.788      28.906     -10.605
  O      226.065      31.097     -11.306
  O      225.043      33.475     -11.455
  H      219.081      30.826     -15.028
  H      224.250      34.025     -11.316
  H      218.840      25.743     -10.752
  H      220.572      28.821      -8.485
  H      221.354      29.831     -10.612
  H      220.854      28.134     -13.869
  H      219.094      30.191     -12.902
  H      220.977      31.404     -12.077
  H      222.378      30.627     -14.686
  H      224.424      31.005     -13.443
  H      223.507      32.517     -13.470
  P      219.273      33.329     -13.246
  C      218.680      35.686     -12.344
  O      219.681      34.826     -12.843
  O      218.333      32.604     -12.341
  O      218.556      33.558     -14.666
  H      217.589      33.559     -14.536
  H      219.123      36.670     -12.163
  H      218.286      35.304     -11.397
  H      217.871      35.795     -13.071
  H      225.203      32.078      -7.468
  H      226.366      32.682      -8.624
  H      226.031      30.969      -8.535

 3  4  5  6  7  8  9  10  11  12  13  23  28  29  30  31  32 0
 6-311+G(2d,p)
 ****
 33  34 0
 6-311+G(2d,p)
 ****
 1  2  14  15  16  17  18  19  20  21  22  24  25  26  27 0
 3-21G
 ****
 35  36  37  38  39  40  41  42  43  44  45 0
 3-21G
 ****


