%nproc=1
%NoSave
%Mem=1900MB
#P OB98/GEN NMR

erre ene a

0 1
  C     -232.821     328.320     107.761
  O     -233.770     327.255     107.685
  P     -233.339     325.837     108.292
  C     -233.884     324.058     106.443
  O     -232.921     324.882     107.070
  C     -233.277     322.697     106.043
  O     -232.264     322.930     105.028
  C     -232.559     321.946     107.167
  O     -232.428     320.575     106.795
  C     -231.194     322.607     107.159
  O     -230.225     321.813     107.832
  C     -230.949     322.835     105.647
  N     -230.164     324.055     105.354
  C     -228.795     324.049     105.629
  O     -228.201     323.079     106.103
  N     -228.125     325.212     105.377
  C     -228.659     326.350     104.850
  O     -228.029     327.394     104.728
  C     -230.070     326.262     104.452
  C     -230.751     325.148     104.728
  O     -234.721     325.220     108.821
  O     -232.317     325.931     109.379
  H     -230.266     320.920     107.419
  H     -234.763     325.274     109.793
  H     -227.149     325.236     105.630
  H     -230.518     327.126     103.968
  H     -231.804     325.070     104.457
  H     -230.413     321.986     105.207
  H     -231.249     323.570     107.682
  H     -233.046     322.026     108.147
  H     -234.056     322.070     105.598
  H     -234.291     324.561     105.558
  H     -234.730     323.890     107.123
  P     -233.589     319.560     107.243
  C     -232.113     318.444     109.031
  O     -233.295     319.182     108.774
  O     -233.843     318.402     106.332
  O     -234.870     320.514     107.356
  H     -235.692     319.978     107.327
  H     -231.759     318.691     110.036
  H     -231.329     318.681     108.304
  H     -232.347     317.374     108.987
  H     -233.238     329.202     107.321
  H     -231.932     328.044     107.233
  H     -232.582     328.512     108.786

 3  4  5  6  7  8  9  10  11  12  13  23  28  29  30  31  32 0
 6-311+G(2d,p)
 ****
 33  34 0
 6-311+G(2d,p)
 ****
 1  2  14  15  16  17  18  19  20  21  22  24  25  26  27 0
 3-21G
 ****
 35  36  37  38  39  40  41  42  43  44  45 0
 3-21G
 ****


