%nproc=1
%NoSave
%Mem=1900MB
#P OB98/GEN NMR

erre ene a

0 1
  C      164.218      99.160     280.836
  O      164.392      98.157     281.833
  P      165.198      96.833     281.421
  C      164.537      94.350     280.896
  O      164.162      95.611     281.418
  C      163.300      93.546     280.452
  O      162.494      93.265     281.623
  C      162.367      94.265     279.481
  O      161.536      93.293     278.842
  C      161.532      95.105     280.422
  O      160.328      95.548     279.801
  C      161.353      94.164     281.636
  N      161.279      94.876     282.931
  C      160.026      95.114     283.485
  O      158.966      94.769     282.964
  N      160.011      95.808     284.665
  C      161.105      96.245     285.351
  O      161.032      96.938     286.357
  C      162.404      95.845     284.794
  C      162.432      95.203     283.627
  O      166.134      96.555     282.688
  O      165.984      96.979     280.163
  H      159.821      94.738     279.564
  H      167.055      96.796     282.485
  H      159.107      96.048     285.044
  H      163.296      96.116     285.347
  H      163.387      94.917     283.190
  H      160.436      93.568     281.541
  H      162.093      95.996     280.718
  H      162.876      94.875     278.730
  H      163.625      92.586     280.037
  H      165.103      93.792     281.644
  H      165.203      94.492     280.035
  P      161.696      93.093     277.259
  C      160.465      93.956     275.175
  O      160.653      94.098     276.570
  O      161.654      91.684     276.772
  O      163.109      93.789     276.953
  H      163.448      93.474     276.093
  H      159.450      94.270     274.924
  H      160.607      92.920     274.853
  H      161.176      94.599     274.650
  H      163.667      99.980     281.247
  H      163.681      98.749     280.007
  H      165.176      99.504     280.505

 3  4  5  6  7  8  9  10  11  12  13  23  28  29  30  31  32 0
 6-311+G(2d,p)
 ****
 33  34 0
 6-311+G(2d,p)
 ****
 1  2  14  15  16  17  18  19  20  21  22  24  25  26  27 0
 3-21G
 ****
 35  36  37  38  39  40  41  42  43  44  45 0
 3-21G
 ****


