%nproc=1
%NoSave
%Mem=1900MB
#P OB98/GEN NMR

erre ene a

0 1
  C        3.595     -74.115      62.993
  O        2.945     -73.184      63.834
  H        3.987     -74.930      63.607
  H        4.429     -73.637      62.472
  H        2.888     -74.526      62.268
  P        2.346     -71.872      63.134
  C       -0.139     -72.409      62.601
  O        1.201     -72.370      62.128
  C       -1.082     -71.925      61.505
  O       -0.716     -70.585      61.098
  C       -1.038     -72.760      60.233
  O       -1.773     -73.964      60.355
  C       -1.652     -71.794      59.234
  O       -3.088     -71.839      59.270
  C       -1.127     -70.427      59.726
  N       -0.049     -69.917      58.886
  C       -0.343     -69.805      57.531
  O       -1.434     -70.113      57.049
  N        0.677     -69.363      56.733
  C        1.942     -69.065      57.144
  O        2.832     -68.743      56.367
  C        2.190     -69.187      58.591
  C        1.201     -69.611      59.382
  O        3.530     -71.406      62.164
  O        1.928     -70.790      64.073
  H        4.003     -70.649      62.556
  H       -3.355     -71.338      60.065
  H        0.487     -69.286      55.746
  H        3.183     -68.953      58.953
  H        1.367     -69.729      60.448
  H       -1.937     -69.686      59.723
  H       -1.355     -72.031      58.213
  H        0.001     -72.955      59.944
  H       -2.102     -71.893      61.913
  H       -0.238     -71.755      63.472
  H       -0.381     -73.434      62.900
  P       -1.740     -75.008      59.139
  C        0.176     -76.654      59.859
  O       -0.238     -75.564      59.056
  O       -1.862     -74.025      57.884
  O       -2.794     -76.059      59.223
  H       -1.399     -73.180      58.017
  H        1.204     -76.873      59.660
  H       -0.422     -77.512      59.632
  H        0.059     -76.401      60.892

 6  7  8  9  10  11  12  13  14  15  16  27  31  32  33  34  35 0
 6-311+G(2d,p)
 ****
 36  37 0
 6-311+G(2d,p)
 ****
 1  2  3  4  5  17  18  19  20  21  22  23  24  25 0
 3-21G
 ****
 26  28  29  30  38  39  40  41  42  43  44  45 0
 3-21G
 ****


