%nproc=1
%NoSave
%Mem=1900MB
#P OB98/GEN NMR

erre ene a

0 1
  C      -81.383     270.525     813.401
  O      -82.276     270.577     812.300
  P      -83.145     269.314     811.850
  C      -85.556     270.027     812.571
  O      -84.630     269.838     811.488
  C      -86.970     270.383     812.089
  O      -86.963     271.675     811.448
  C      -87.429     269.378     811.019
  O      -88.001     268.147     811.411
  C      -88.289     270.204     810.046
  O      -89.673     270.070     810.309
  C      -87.814     271.636     810.305
  N      -88.119     273.008     805.416
  C      -89.138     272.689     806.301
  N      -90.359     272.543     805.753
  N      -88.964     272.515     807.581
  C      -87.659     272.598     807.955
  C      -86.555     272.926     807.194
  C      -86.794     273.158     805.781
  O      -85.890     273.354     804.947
  N      -85.391     272.855     807.897
  C      -85.765     272.444     809.096
  N      -87.124     272.250     809.179
  O      -83.001     268.066     812.649
  O      -82.534     269.015     810.380
  H      -90.157     270.783     809.852
  H      -82.554     268.056     810.232
  H      -88.314     273.051     804.440
  H      -85.098     272.249     809.927
  H      -88.673     272.283     810.540
  H      -88.137     269.861     809.027
  H      -90.511     272.518     804.743
  H      -86.542     269.098     810.436
  H      -91.101     272.148     806.342
  H      -87.668     270.483     812.929
  H      -85.139     270.830     813.205
  H      -85.595     269.126     813.170
  P      -87.591     266.687     810.868
  C      -85.675     266.349     812.554
  O      -86.935     265.871     812.071
  O      -86.323     266.977     809.896
  O      -88.666     265.967     810.120
  H      -86.221     266.239     809.264
  H      -85.196     265.569     813.128
  H      -85.840     267.224     813.180
  H      -85.026     266.623     811.718
  H      -80.909     271.477     813.521
  H      -80.639     269.777     813.222
  H      -81.927     270.282     814.290

 3  4  5  6  7  8  9  10  11  12  23  26  30  31 0
 6-311+G(2d,p)
 ****
 33  35  36  37  38 0
 6-311+G(2d,p)
 ****
 1  2  13  14  15  16  17  18  19  20  21  22  24  25 0
 3-21G
 ****
 27  28  29  32  34  39  40  41  42  43  44  45  46  47  48  49 0
 3-21G
 ****


