%nproc=1
%NoSave
%Mem=1900MB
#P OB98/GEN NMR

erre ene a

0 1
  C     -326.208      -1.398     117.596
  O     -327.169      -1.802     118.559
  P     -327.730      -0.711     119.586
  C     -326.778       0.600     121.621
  O     -326.617      -0.487     120.723
  C     -325.527       0.758     122.490
  O     -324.351       0.880     121.628
  C     -325.549       1.994     123.403
  O     -324.850       1.652     124.613
  C     -324.736       3.003     122.616
  O     -324.234       4.063     123.413
  C     -323.661       2.081     122.030
  N     -322.937       2.688     120.908
  C     -321.616       3.057     121.124
  O     -321.029       2.910     122.198
  N     -320.991       3.683     120.078
  C     -321.568       4.040     118.897
  O     -320.987       4.698     118.044
  C     -322.971       3.624     118.717
  C     -323.579       2.976     119.716
  O     -328.903      -1.494     120.346
  O     -328.221       0.549     118.948
  H     -324.999       4.597     123.697
  H     -329.771      -1.244     119.980
  H     -320.029       3.946     120.216
  H     -323.453       3.873     117.785
  H     -324.619       2.669     119.625
  H     -322.942       1.791     122.813
  H     -325.360       3.442     121.829
  H     -326.559       2.349     123.635
  H     -325.395      -0.157     123.089
  H     -327.636       0.408     122.264
  H     -326.966       1.522     121.057
  P     -325.385       2.284     125.991
  C     -325.267       4.652     127.089
  O     -324.961       3.827     125.984
  O     -324.372       1.612     127.039
  O     -326.823       1.985     126.271
  H     -323.449       1.613     126.726
  H     -325.216       4.102     128.033
  H     -326.268       5.065     126.970
  H     -324.549       5.482     127.122
  H     -325.936      -2.237     116.990
  H     -325.339      -1.022     118.095
  H     -326.624      -0.631     116.977

 3  4  5  6  7  8  9  10  11  12  13  23  28  29  30  31  32 0
 6-311+G(2d,p)
 ****
 33  34 0
 6-311+G(2d,p)
 ****
 1  2  14  15  16  17  18  19  20  21  22  24  25  26 0
 3-21G
 ****
 27  35  36  37  38  39  40  41  42  43  44  45 0
 3-21G
 ****


