%nproc=1
%NoSave
%Mem=1900MB
#P OB98/GEN NMR

erre ene a

0 1
  C     -754.458     700.915    -369.051
  O     -754.937     700.585    -367.764
  H     -753.362     700.928    -369.015
  H     -754.799     701.912    -369.343
  H     -754.777     700.175    -369.788
  P     -756.529     700.405    -367.565
  C     -756.727     697.966    -366.754
  O     -756.852     698.860    -367.854
  C     -755.487     697.084    -366.923
  O     -754.305     697.928    -366.951
  C     -755.308     696.070    -365.788
  O     -754.807     694.847    -366.342
  C     -754.242     696.700    -364.908
  O     -753.501     695.732    -364.166
  C     -753.395     697.462    -365.935
  N     -749.486     700.611    -366.518
  C     -749.984     699.629    -367.358
  N     -749.326     699.445    -368.528
  N     -751.034     698.894    -367.081
  C     -751.600     699.194    -365.891
  C     -751.205     700.128    -364.970
  C     -750.034     700.922    -365.279
  O     -749.545     701.794    -364.562
  N     -752.023     700.106    -363.859
  C     -752.905     699.168    -364.122
  N     -752.688     698.579    -365.335
  O     -757.379     701.371    -368.317
  O     -756.733     700.537    -365.988
  H     -754.152     695.206    -363.661
  H     -757.052     701.425    -365.745
  H     -748.672     701.129    -366.762
  H     -753.709     698.872    -363.459
  H     -752.640     696.822    -366.413
  H     -754.713     697.393    -364.201
  H     -748.523     699.980    -368.806
  H     -756.226     695.866    -365.244
  H     -749.684     698.748    -369.175
  H     -755.552     696.578    -367.892
  H     -757.624     697.352    -366.712
  H     -756.648     698.546    -365.830
  P     -755.766     693.554    -366.362
  C     -755.909     692.603    -368.753
  O     -756.479     693.489    -367.802
  O     -756.674     693.405    -365.194
  O     -754.715     692.340    -366.452
  H     -755.106     691.572    -366.002
  H     -756.468     692.650    -369.664
  H     -755.934     691.604    -368.370
  H     -754.895     692.887    -368.942

 6  7  8  9  10  11  12  13  14  15  26  29  33  34 0
 6-311+G(2d,p)
 ****
 36  38  39  40  41 0
 6-311+G(2d,p)
 ****
 1  2  3  4  5  16  17  18  19  20  21  22  23  24  25 0
 3-21G
 ****
 27  28  30  31  32  35  37  42  43  44  45  46  47 0
 3-21G
 ****
 48  49 0
 3-21G
 ****


