%nproc=1
%NoSave
%Mem=1900MB
#P OB98/GEN NMR

erre ene a

0 1
  C      -32.811     283.806      83.930
  O      -34.189     283.510      84.052
  H      -32.668     284.879      84.076
  H      -32.454     283.535      82.932
  H      -32.239     283.264      84.690
  P      -34.611     281.969      83.889
  C      -34.513     280.279      81.914
  O      -34.537     281.644      82.320
  C      -34.811     280.183      80.421
  O      -36.162     280.626      80.161
  C      -33.920     281.067      79.557
  O      -32.634     280.508      79.352
  C      -34.750     281.165      78.283
  O      -34.543     280.028      77.437
  C      -36.186     281.175      78.820
  N      -38.279     284.831      75.937
  C      -37.891     283.568      75.652
  N      -37.354     282.650      76.484
  C      -37.255     283.141      77.730
  C      -37.611     284.406      78.170
  C      -38.151     285.278      77.211
  N      -38.524     286.570      77.492
  N      -37.323     284.553      79.513
  C      -36.806     283.395      79.881
  N      -36.751     282.511      78.839
  O      -36.179     281.990      84.203
  O      -33.879     281.016      84.773
  H      -33.580     279.873      77.418
  H      -36.333     281.694      85.121
  H      -38.021     283.257      74.621
  H      -36.460     283.153      80.878
  H      -36.854     280.547      78.224
  H      -34.487     282.058      77.716
  H      -33.839     282.070      80.002
  H      -34.730     279.130      80.112
  H      -35.276     279.721      82.469
  H      -33.527     279.859      82.141
  H      -38.838     287.159      76.739
  H      -38.325     286.949      78.409
  P      -31.393     281.516      79.235
  C      -30.645     283.298      77.485
  O      -31.427     282.147      77.762
  O      -30.119     280.547      79.206
  O      -31.305     282.522      80.334
  H      -29.372     280.971      79.676
  H      -30.783     283.586      76.464
  H      -29.612     283.077      77.657
  H      -30.950     284.099      78.125

 6  7  8  9  10  11  12  13  14  15  25  28  32  33  34  35 0
 6-311+G(2d,p)
 ****
 36  37  40 0
 6-311+G(2d,p)
 ****
 1  2  3  4  5  16  17  18  19  20  21  22  23  24 0
 3-21G
 ****
 26  27  29  30  31  38  39 41  42  43  44  45  46  47  48 0
 3-21G
 ****


