%nproc=1
%NoSave
%Mem=1900MB
#P OB98/GEN NMR

erre ene a

0 1
  C     -595.959     218.089     317.728
  O     -597.254     218.591     318.022
  H     -596.067     217.114     317.244
  H     -595.394     217.965     318.652
  H     -595.419     218.762     317.045
  P     -597.345     220.149     318.427
  C     -597.619     221.046     315.999
  O     -596.806     220.979     317.161
  C     -597.912     222.495     315.641
  O     -596.709     223.175     315.272
  C     -598.884     222.666     314.461
  O     -600.237     222.570     314.871
  C     -598.532     224.090     314.027
  O     -599.156     225.026     314.932
  C     -597.019     224.111     314.200
  N     -595.371     225.625     309.633
  C     -596.179     226.270     310.535
  N     -596.598     227.510     310.183
  N     -596.523     225.783     311.691
  C     -596.041     224.528     311.915
  C     -595.237     223.765     311.085
  C     -594.850     224.347     309.821
  O     -594.120     223.812     308.978
  N     -594.945     222.549     311.637
  C     -595.576     222.565     312.795
  N     -596.268     223.735     313.009
  O     -596.179     220.308     319.514
  O     -598.662     220.585     318.979
  H     -600.030     224.668     315.151
  H     -596.577     220.325     320.400
  H     -595.133     226.048     308.750
  H     -595.579     221.755     313.511
  H     -596.653     225.112     314.503
  H     -598.914     224.320     313.026
  H     -596.396     227.942     309.291
  H     -598.644     221.973     313.638
  H     -597.190     228.011     310.839
  H     -598.314     222.988     316.541
  H     -598.565     220.513     316.203
  H     -597.094     220.544     315.167
  P     -601.333     222.154     313.778
  C     -601.253     219.678     314.572
  O     -601.138     220.592     313.475
  O     -600.794     222.867     312.449
  O     -602.735     222.573     314.100
  H     -601.406     223.598     312.192
  H     -601.100     218.679     314.221
  H     -602.229     219.759     315.003
  H     -600.516     219.913     315.311

 6  7  8  9  10  11  12  13  14  15  26  29  33  34 0
 6-311+G(2d,p)
 ****
 36  38  39  40  41 0
 6-311+G(2d,p)
 ****
 1  2  3  4  5  16  17  18  19  20  21  22  23  24  25 0
 3-21G
 ****
 27  28  30  31  32  35  37  42  43  44  45  46  47 0
 3-21G
 ****
 48  49 0
 3-21G
 ****


