%nproc=1
%NoSave
%Mem=1900MB
#P OB98/GEN NMR

erre ene a

0 1
  C      523.700     520.905     226.097
  O      524.865     520.298     225.578
  H      522.970     521.007     225.286
  H      523.928     521.898     226.490
  H      523.264     520.283     226.881
  P      526.124     520.093     226.549
  C      527.047     522.387     225.804
  O      526.675     521.558     226.906
  C      526.957     523.865     226.206
  O      525.554     524.176     226.426
  C      527.725     524.178     227.503
  O      528.648     525.257     227.361
  C      526.618     524.320     228.540
  O      526.951     525.142     229.647
  C      525.430     524.814     227.718
  N      524.124     524.509     228.309
  C      523.595     525.445     229.196
  O      524.128     526.510     229.503
  N      522.384     525.113     229.746
  C      521.675     523.974     229.510
  O      520.589     523.735     230.027
  C      522.293     523.016     228.577
  C      523.477     523.324     228.028
  O      527.165     519.130     226.068
  O      525.477     519.609     227.936
  H      527.010     526.061     229.332
  H      525.589     518.645     228.026
  H      521.988     525.783     230.382
  H      521.767     522.095     228.375
  H      523.963     522.646     227.331
  H      525.484     525.895     227.562
  H      526.389     523.323     228.941
  H      528.367     523.336     227.786
  H      527.301     524.480     225.371
  H      526.365     522.169     224.981
  H      528.073     522.147     225.498
  P      530.219     525.089     227.156
  C      531.139     524.418     229.522
  O      530.751     524.019     228.212
  O      530.998     526.357     227.030
  O      530.326     524.315     225.737
  H      531.151     524.627     225.308
  H      531.464     523.561     230.074
  H      530.305     524.868     230.019
  H      531.939     525.125     229.457

 6  7  8  9  10  11  12  13  14  15  16  26  31  32  33  34  35 0
 6-311+G(2d,p)
 ****
 36  37 0
 6-311+G(2d,p)
 ****
 1  2  3  4  5  17  18  19  20  21  22  23  24  25 0
 3-21G
 ****
 27  28  29  30  38  39  40  41  42  43  44  45 0
 3-21G
 ****


