%nproc=1
%NoSave
%Mem=1900MB
#P OB98/GEN NMR

erre ene a

0 1
  C     -146.326    -732.613    -213.298
  O     -146.526    -733.286    -214.529
  H     -147.093    -731.840    -213.194
  H     -145.344    -732.144    -213.283
  H     -146.417    -733.318    -212.461
  P     -145.559    -734.528    -214.840
  C     -145.969    -736.875    -215.871
  O     -146.388    -735.521    -215.795
  C     -147.167    -737.802    -216.082
  O     -147.836    -738.021    -214.804
  C     -148.220    -737.266    -217.070
  O     -148.770    -738.373    -217.795
  C     -149.296    -736.714    -216.147
  O     -150.571    -736.613    -216.792
  C     -149.241    -737.749    -215.023
  N     -152.469    -739.063    -211.386
  C     -151.968    -739.788    -212.454
  N     -152.406    -741.069    -212.577
  N     -151.135    -739.308    -213.335
  C     -150.750    -738.027    -213.069
  C     -151.169    -737.194    -212.047
  C     -152.136    -737.743    -211.109
  O     -152.623    -737.138    -210.151
  N     -150.578    -735.965    -212.146
  C     -149.818    -736.044    -213.219
  N     -149.889    -737.278    -213.814
  O     -145.517    -735.301    -213.438
  O     -144.191    -734.175    -215.322
  H     -150.464    -736.018    -217.566
  H     -144.752    -735.008    -212.912
  H     -153.125    -739.478    -210.752
  H     -149.188    -735.248    -213.610
  H     -149.726    -738.693    -215.300
  H     -149.017    -735.722    -215.781
  H     -153.020    -741.521    -211.917
  H     -147.837    -736.515    -217.777
  H     -152.024    -741.628    -213.335
  H     -146.795    -738.785    -216.418
  H     -145.474    -737.146    -214.931
  H     -145.249    -736.992    -216.697
  P     -148.490    -738.461    -219.370
  C     -149.005    -740.132    -221.300
  O     -149.170    -739.806    -219.924
  O     -146.923    -738.793    -219.440
  O     -148.826    -737.209    -220.120
  H     -146.543    -738.455    -220.281
  H     -149.513    -741.050    -221.513
  H     -147.963    -740.242    -221.518
  H     -149.415    -739.349    -221.904

 6  7  8  9  10  11  12  13  14  15  26  29  33  34 0
 6-311+G(2d,p)
 ****
 36  38  39  40  41 0
 6-311+G(2d,p)
 ****
 1  2  3  4  5  16  17  18  19  20  21  22  23  24  25 0
 3-21G
 ****
 27  28  30  31  32  35  37  42  43  44  45  46  47 0
 3-21G
 ****
 48  49 0
 3-21G
 ****


