%nproc=1
%NoSave
%Mem=1900MB
#P OB98/GEN NMR

erre ene a

0 1
  C      -73.446     136.369    -532.704
  O      -74.808     136.126    -533.072
  P      -75.694     135.233    -532.076
  C      -77.684     135.600    -530.439
  O      -76.769     136.182    -531.358
  C      -78.552     136.688    -529.795
  O      -77.765     137.548    -528.949
  C      -79.195     137.615    -530.816
  O      -80.319     136.990    -531.410
  C      -79.545     138.830    -529.966
  O      -80.860     138.720    -529.392
  C      -78.460     138.805    -528.863
  N      -77.544     139.926    -528.958
  C      -78.062     141.175    -528.588
  O      -79.240     141.278    -528.233
  N      -77.243     142.272    -528.657
  C      -76.024     142.142    -529.082
  N      -75.261     143.266    -529.134
  C      -75.447     140.849    -529.506
  C      -76.254     139.793    -529.422
  O      -74.671     134.875    -530.896
  O      -76.258     134.002    -532.706
  H      -80.972     137.769    -529.175
  H      -74.870     133.994    -530.531
  H      -74.428     140.791    -529.858
  H      -75.915     138.805    -529.711
  H      -78.927     138.836    -527.867
  H      -79.538     139.747    -530.558
  H      -78.464     137.897    -531.583
  H      -79.324     136.203    -529.185
  H      -75.689     144.138    -528.837
  H      -77.140     135.054    -529.663
  H      -74.302     143.280    -529.453
  H      -78.301     134.866    -530.966
  P      -80.393     136.951    -533.012
  C      -79.362     135.420    -534.793
  O      -79.689     135.571    -533.423
  O      -79.276     138.027    -533.423
  O      -81.710     137.244    -533.646
  H      -79.285     138.167    -534.386
  H      -78.714     134.546    -534.904
  H      -78.834     136.300    -535.166
  H      -80.275     135.255    -535.377
  H      -72.977     136.973    -533.452
  H      -72.927     135.437    -532.621
  H      -73.416     136.879    -531.764

 3  4  5  6  7  8  9  10  11  12  13  21  23  27  28  29  30  32 0
 6-311+G(2d,p)
 ****
 34  35 0
 6-311+G(2d,p)
 ****
 1  2  14  15  16  17  18  19  20  22  24  25  26 0
 3-21G
 ****
 31  33  36  37  38  39  40  41  42  43  44  45  46 0
 3-21G
 ****


