%nproc=1
%NoSave
%Mem=1900MB
#P OB98/GEN NMR

erre ene a

0 1
  C      599.291     146.254      36.314
  O      598.731     147.006      37.399
  P      597.140     147.044      37.549
  C      596.946     146.025      39.934
  O      596.689     145.867      38.545
  C      595.984     145.154      40.756
  O      594.620     145.606      40.623
  C      595.969     143.694      40.339
  O      597.050     142.970      40.917
  C      594.647     143.227      40.937
  O      594.812     142.970      42.342
  C      593.748     144.446      40.721
  N      589.604     142.349      38.568
  C      590.162     142.191      39.787
  N      591.278     142.772      40.280
  C      591.818     143.603      39.376
  C      591.360     143.865      38.093
  C      590.194     143.196      37.690
  N      589.625     143.358      36.444
  N      592.182     144.765      37.457
  C      593.115     145.055      38.340
  N      592.943     144.372      39.516
  O      596.629     146.526      36.121
  O      596.592     148.394      37.867
  H      593.960     142.627      42.672
  H      595.797     146.979      35.884
  H      589.650     141.507      40.456
  H      593.930     145.755      38.177
  H      593.061     144.616      41.558
  H      594.288     142.303      40.483
  H      595.949     143.592      39.243
  H      596.275     145.231      41.814
  H      596.848     147.069      40.224
  H      588.773     142.865      36.242
  H      590.050     144.003      35.803
  H      597.988     145.742      40.137
  P      597.975     142.111      39.927
  C      600.014     143.693      40.171
  O      599.040     143.139      39.320
  O      596.987     141.790      38.701
  O      598.538     140.869      40.534
  H      597.231     140.938      38.294
  H      600.818     144.115      39.562
  H      600.436     142.934      40.837
  H      599.572     144.499      40.772
  H      600.358     146.323      36.346
  H      598.935     146.649      35.385
  H      598.997     145.229      36.402

 3  4  5  6  7  8  9  10  11  12  22  25  29  30  31  32 0
 6-311+G(2d,p)
 ****
 33  36  37 0
 6-311+G(2d,p)
 ****
 1  2  13  14  15  16  17  18  19  20  21  23  24  26 0
 3-21G
 ****
 27  28  34  35  38  39  40  41  42  43  44  45  46  47  48 0
 3-21G
 ****


