%nproc=1
%NoSave
%Mem=1900MB
#P OB98/GEN NMR

erre ene a

0 1
  C     -391.223    1375.027    -214.005
  O     -391.107    1376.218    -213.237
  P     -392.129    1377.440    -213.524
  C     -393.264    1377.140    -211.236
  O     -393.443    1377.221    -212.641
  C     -394.572    1376.849    -210.503
  O     -395.589    1377.827    -210.856
  C     -395.160    1375.480    -210.739
  O     -395.766    1375.032    -209.499
  C     -396.212    1375.741    -211.780
  O     -397.173    1374.707    -211.878
  C     -396.747    1377.108    -211.276
  N     -397.494    1377.831    -212.321
  C     -398.858    1377.675    -212.332
  O     -399.400    1376.851    -211.572
  N     -399.622    1378.441    -213.231
  C     -398.990    1379.154    -214.118
  N     -399.747    1379.876    -214.986
  C     -397.513    1379.203    -214.226
  C     -396.835    1378.536    -213.293
  O     -392.348    1377.731    -214.977
  O     -391.408    1378.683    -212.785
  H     -396.799    1373.969    -212.441
  H     -391.578    1379.483    -213.304
  H     -397.026    1379.739    -215.046
  H     -395.762    1378.537    -213.284
  H     -397.406    1376.962    -210.412
  H     -395.757    1375.861    -212.773
  H     -394.425    1374.714    -211.061
  H     -394.392    1376.993    -209.407
  H     -400.759    1379.808    -214.904
  H     -392.825    1378.076    -210.880
  H     -399.339    1380.528    -215.680
  H     -392.509    1376.373    -211.026
  P     -395.245    1373.672    -208.834
  C     -393.610    1374.834    -207.202
  O     -393.769    1373.934    -208.272
  O     -394.969    1372.749    -210.127
  O     -396.231    1372.968    -207.925
  H     -395.056    1371.816    -209.862
  H     -392.601    1374.661    -206.779
  H     -394.349    1374.668    -206.422
  H     -393.649    1375.849    -207.546
  H     -390.478    1374.326    -213.691
  H     -391.083    1375.256    -215.041
  H     -392.195    1374.603    -213.861

 3  4  5  6  7  8  9  10  11  12  13  23  27  28  29  30  32 0
 6-311+G(2d,p)
 ****
 34  35 0
 6-311+G(2d,p)
 ****
 1  2  14  15  16  17  18  19  20  21  22  24  25  26 0
 3-21G
 ****
 31  33  36  37  38  39  40  41  42  43  44  45  46 0
 3-21G
 ****


