%nproc=1
%NoSave
%Mem=1900MB
#P OB98/GEN NMR

erre ene a

0 1
  C      -34.367      57.542     -55.590
  O      -33.216      56.694     -55.613
  P      -33.182      55.541     -56.729
  C      -33.096      56.838     -58.969
  O      -32.372      56.093     -58.002
  C      -32.162      57.705     -59.822
  O      -31.693      58.858     -59.067
  C      -30.918      56.962     -60.317
  O      -30.580      57.488     -61.607
  C      -29.851      57.383     -59.326
  O      -28.539      57.173     -59.846
  C      -30.250      58.839     -59.097
  N      -26.298      61.333     -57.045
  C      -26.564      60.946     -58.310
  N      -27.634      60.262     -58.774
  C      -28.502      60.019     -57.777
  C      -28.364      60.343     -56.437
  C      -27.195      61.032     -56.076
  N      -26.910      61.405     -54.783
  N      -29.445      59.882     -55.712
  C      -30.217      59.287     -56.600
  N      -29.705      59.371     -57.863
  O      -34.698      55.486     -57.241
  O      -32.732      54.215     -56.213
  H      -27.914      57.719     -59.324
  H      -35.129      54.674     -56.916
  H      -25.815      61.216     -59.052
  H      -31.144      58.780     -56.382
  H      -29.915      59.497     -59.909
  H      -29.951      56.799     -58.402
  H      -31.028      55.874     -60.379
  H      -32.730      58.083     -60.680
  H      -33.829      57.483     -58.474
  H      -26.034      61.870     -54.603
  H      -27.547      61.145     -54.045
  H      -33.676      56.148     -59.591
  P      -30.699      56.480     -62.846
  C      -32.938      57.450     -63.726
  O      -31.560      57.240     -63.962
  O      -31.689      55.340     -62.312
  O      -29.393      55.918     -63.303
  H      -31.527      54.505     -62.787
  H      -33.207      58.451     -64.076
  H      -33.193      57.368     -62.665
  H      -33.513      56.711     -64.289
  H      -34.264      58.262     -54.805
  H      -35.242      56.951     -55.419
  H      -34.456      58.048     -56.529

 3  4  5  6  7  8  9  10  11  12  22  25  29  30  31  32 0
 6-311+G(2d,p)
 ****
 33  36  37 0
 6-311+G(2d,p)
 ****
 1  2  13  14  15  16  17  18  19  20  21  23  24  26 0
 3-21G
 ****
 27  28  34  35  38  39  40  41  42  43  44  45  46  47  48 0
 3-21G
 ****


