%nproc=1
%NoSave
%Mem=1900MB
#P OB98/GEN NMR

erre ene a

0 1
  C      145.271      34.068    -105.833
  O      144.395      33.018    -105.461
  P      145.023      31.779    -104.653
  C      145.959      31.525    -102.243
  O      145.708      32.396    -103.339
  C      147.077      32.063    -101.350
  O      148.354      31.748    -101.954
  C      147.022      33.574    -101.120
  O      147.432      33.828     -99.776
  C      148.076      34.114    -102.067
  O      148.572      35.381    -101.639
  C      149.106      32.974    -102.050
  N      149.963      32.986    -103.231
  C      151.249      33.510    -103.074
  O      151.585      34.005    -101.998
  N      152.101      33.507    -104.149
  C      151.670      33.117    -105.308
  N      152.553      33.130    -106.342
  C      150.282      32.673    -105.544
  C      149.498      32.613    -104.469
  O      146.271      31.358    -105.558
  O      144.080      30.644    -104.423
  H      147.805      35.986    -101.527
  H      146.433      30.398    -105.503
  H      149.964      32.392    -106.537
  H      148.473      32.277    -104.543
  H      149.743      33.044    -101.158
  H      147.651      34.231    -103.072
  H      146.025      33.993    -101.289
  H      147.033      31.532    -100.390
  H      153.494      33.452    -106.158
  H      146.269      30.550    -102.628
  H      152.306      32.844    -107.280
  H      145.038      31.388    -101.670
  P      146.786      35.091     -99.028
  C      144.389      35.714     -98.352
  O      145.202      34.885     -99.160
  O      147.046      36.262    -100.095
  O      147.312      35.462     -97.682
  H      146.750      37.113     -99.727
  H      143.345      35.566     -98.639
  H      144.651      36.765     -98.496
  H      144.506      35.437     -97.300
  H      144.722      34.820    -106.361
  H      146.044      33.681    -106.464
  H      145.708      34.496    -104.955

 3  4  5  6  7  8  9  10  11  12  13  21  23  27  28  29  30  32 0
 6-311+G(2d,p)
 ****
 34  35 0
 6-311+G(2d,p)
 ****
 1  2  14  15  16  17  18  19  20  22  24  25  26 0
 3-21G
 ****
 31  33  36  37  38  39  40  41  42  43  44  45  46 0
 3-21G
 ****


