%nproc=1
%NoSave
%Mem=1900MB
#P OB98/GEN NMR

erre ene a

0 1
  C     -132.326     -28.605    -176.949
  O     -131.654     -28.998    -178.126
  H     -132.124     -27.544    -176.770
  H     -131.960     -29.178    -176.094
  H     -133.406     -28.740    -177.051
  P     -131.920     -30.466    -178.711
  C     -133.646     -29.775    -180.495
  O     -133.417     -30.479    -179.280
  C     -133.973     -30.762    -181.613
  O     -132.824     -31.598    -181.886
  C     -135.102     -31.726    -181.273
  O     -136.364     -31.094    -181.349
  C     -134.865     -32.818    -182.302
  O     -135.426     -32.465    -183.572
  C     -133.323     -32.860    -182.381
  N     -132.765     -33.981    -181.623
  C     -132.831     -35.229    -182.235
  O     -133.313     -35.414    -183.351
  N     -132.374     -36.283    -181.488
  C     -132.004     -36.225    -180.178
  O     -131.841     -37.221    -179.479
  C     -131.896     -34.875    -179.603
  C     -132.288     -33.832    -180.337
  O     -131.576     -31.596    -177.799
  O     -131.033     -30.504    -180.046
  H     -130.215     -31.007    -179.872
  H     -135.145     -33.168    -184.193
  H     -132.459     -37.197    -181.911
  H     -131.537     -34.782    -178.586
  H     -132.249     -32.828    -179.924
  H     -132.994     -32.945    -183.423
  H     -135.313     -33.764    -181.992
  H     -134.945     -32.142    -180.271
  H     -134.204     -30.192    -182.522
  H     -132.739     -29.219    -180.754
  H     -134.469     -29.070    -180.347
  P     -137.678     -31.850    -180.829
  C     -137.113     -31.181    -178.413
  O     -137.456     -32.249    -179.291
  O     -138.161     -32.962    -181.700
  O     -138.781     -30.688    -180.735
  H     -139.590     -30.985    -181.199
  H     -136.990     -31.561    -177.420
  H     -137.893     -30.449    -178.421
  H     -136.198     -30.731    -178.739

 6  7  8  9  10  11  12  13  14  15  16  27  31  32  33  34  35 0
 6-311+G(2d,p)
 ****
 36  37 0
 6-311+G(2d,p)
 ****
 1  2  3  4  5  17  18  19  20  21  22  23  24  25 0
 3-21G
 ****
 26  28  29  30  38  39  40  41  42  43  44  45 0
 3-21G
 ****


