%nproc=1
%NoSave
%Mem=1900MB
#P OB98/GEN NMR

erre ene a

0 1
  C      201.031    -890.141     232.227
  O      201.636    -890.991     231.266
  H      200.140    -889.701     231.784
  H      201.716    -889.351     232.513
  H      200.741    -890.711     233.116
  P      202.912    -891.831     231.743
  C      201.954    -894.211     232.217
  O      202.346    -892.961     232.750
  C      202.001    -895.291     233.304
  O      203.276    -895.171     234.004
  C      200.890    -895.141     234.350
  O      200.458    -896.431     234.754
  C      201.579    -894.441     235.517
  O      200.942    -894.641     236.765
  C      202.986    -895.051     235.425
  N      203.994    -894.221     236.089
  C      204.542    -894.701     237.270
  O      204.290    -895.811     237.755
  N      205.419    -893.871     237.911
  C      205.776    -892.611     237.498
  O      206.560    -891.901     238.113
  C      205.167    -892.151     236.235
  C      204.306    -892.961     235.616
  O      203.692    -890.831     232.714
  O      203.792    -892.351     230.654
  H      204.329    -890.301     232.224
  H      201.009    -895.591     236.983
  H      205.826    -894.201     238.768
  H      205.412    -891.161     235.886
  H      203.822    -892.651     234.686
  H      202.985    -896.061     235.848
  H      201.624    -893.351     235.332
  H      200.031    -894.561     233.983
  H      201.984    -896.261     232.835
  H      202.633    -894.481     231.392
  H      200.933    -894.131     231.814
  P      199.195    -897.091     233.977
  C      200.383    -899.381     233.564
  O      199.848    -898.191     233.001
  O      198.810    -895.901     232.997
  O      198.122    -897.561     234.898
  H      199.568    -895.381     232.650
  H      200.775    -900.000     232.784
  H      199.610    -899.909     234.084
  H      201.167    -899.131     234.248

 6  7  8  9  10  11  12  13  14  15  16  27  31  32  33  34  35 0
 6-311+G(2d,p)
 ****
 36  37 0
 6-311+G(2d,p)
 ****
 1  2  3  4  5  17  18  19  20  21  22  23  24  25 0
 3-21G
 ****
 26  28  29  30  38  39  40  41  42  43  44  45 0
 3-21G
 ****


