%nproc=1
%NoSave
%Mem=1900MB
#P OB98/GEN NMR

erre ene a

0 1
  C       23.820     838.746    -187.673
  O       22.602     838.026    -187.571
  P       21.545     838.035    -188.777
  C       19.314     839.262    -188.110
  O       20.626     839.336    -188.628
  C       19.382     839.299    -186.579
  O       20.251     840.359    -186.139
  C       18.004     839.542    -185.961
  O       17.382     838.307    -185.619
  C       18.327     840.404    -184.763
  O       18.770     839.595    -183.649
  C       19.497     841.270    -185.303
  N       19.162     842.466    -186.105
  C       18.525     843.539    -185.503
  O       18.232     843.585    -184.306
  N       18.214     844.581    -186.339
  C       18.500     844.663    -187.671
  O       18.000     845.467    -188.446
  C       19.402     843.618    -188.182
  C       19.676     842.571    -187.401
  O       20.549     836.838    -188.385
  O       22.117     837.856    -190.144
  H       18.086     838.917    -183.509
  H       20.773     836.028    -188.882
  H       17.608     845.313    -185.946
  H       19.767     843.711    -189.194
  H       20.314     841.780    -187.761
  H       20.150     841.597    -184.482
  H       17.436     840.943    -184.409
  H       17.374     840.114    -186.655
  H       19.791     838.341    -186.217
  H       18.825     838.342    -188.451
  H       18.712     840.098    -188.483
  P       15.870     838.298    -185.079
  C       15.669     837.752    -182.579
  O       15.971     838.750    -183.544
  O       15.096     837.042    -185.333
  O       15.213     839.563    -185.818
  H       14.723     839.271    -186.608
  H       15.946     838.126    -181.590
  H       16.219     836.834    -182.781
  H       14.586     837.545    -182.601
  H       24.387     838.618    -186.774
  H       23.609     839.785    -187.816
  H       24.383     838.378    -188.505

 3  4  5  6  7  8  9  10  11  12  13  23  28  29  30  31  32 0
 6-311+G(2d,p)
 ****
 33  34 0
 6-311+G(2d,p)
 ****
 1  2  14  15  16  17  18  19  20  21  22  24  25  26  27 0
 3-21G
 ****
 35  36  37  38  39  40  41  42  43  44  45 0
 3-21G
 ****


