%nproc=1
%NoSave
%Mem=1900MB
#P OB98/GEN NMR

erre ene a

0 1
  C     -433.990    -199.489     333.824
  O     -433.441    -198.602     332.863
  P     -431.903    -198.709     332.423
  C     -432.530    -199.798     330.180
  O     -431.843    -199.955     331.419
  C     -431.639    -200.246     329.028
  O     -430.470    -199.389     328.994
  C     -431.084    -201.668     329.121
  O     -431.965    -202.676     328.645
  C     -429.885    -201.569     328.188
  O     -430.323    -201.648     326.820
  C     -429.351    -200.165     328.493
  N     -424.394    -201.136     329.303
  C     -425.158    -201.187     328.187
  N     -426.474    -200.933     328.057
  C     -426.999    -200.549     329.234
  C     -426.349    -200.443     330.449
  C     -424.980    -200.759     330.462
  N     -424.203    -200.681     331.597
  N     -427.228    -200.036     331.438
  C     -428.381    -199.889     330.818
  N     -428.292    -200.176     329.484
  O     -430.937    -198.741     333.556
  O     -431.681    -197.457     331.455
  H     -429.558    -201.415     326.262
  H     -430.726    -197.280     331.345
  H     -424.639    -201.480     327.278
  H     -429.301    -199.581     331.294
  H     -428.974    -199.656     327.601
  H     -429.160    -202.374     328.339
  H     -430.736    -201.895     330.136
  H     -432.187    -200.104     328.089
  H     -432.773    -198.739     330.058
  H     -423.209    -200.801     331.484
  H     -424.599    -200.244     332.416
  H     -433.460    -200.367     330.202
  P     -431.565    -204.204     328.953
  C     -433.164    -204.216     331.026
  O     -431.867    -204.422     330.512
  O     -430.197    -204.590     328.503
  O     -432.735    -205.027     328.233
  H     -433.616    -204.927     328.628
  H     -433.192    -204.569     332.061
  H     -433.906    -204.770     330.450
  H     -433.406    -203.151     331.013
  H     -435.023    -199.254     333.978
  H     -433.460    -199.387     334.748
  H     -433.902    -200.496     333.472

 3  4  5  6  7  8  9  10  11  12  22  25  29  30  31  32 0
 6-311+G(2d,p)
 ****
 33  36  37 0
 6-311+G(2d,p)
 ****
 1  2  13  14  15  16  17  18  19  20  21  23  24  26 0
 3-21G
 ****
 27  28  34  35  38  39  40  41  42  43  44  45  46  47  48 0
 3-21G
 ****


