%nproc=1
%NoSave
%Mem=1900MB
#P OB98/GEN NMR

erre ene a

0 1
  C     -237.097      69.152     151.881
  O     -237.359      68.730     150.559
  H     -237.935      69.763     152.227
  H     -236.184      69.753     151.915
  H     -236.995      68.285     152.539
  P     -236.189      67.906     149.826
  C     -237.725      66.351     148.403
  O     -236.865      66.480     149.524
  C     -239.079      65.806     148.843
  O     -239.741      66.739     149.729
  C     -240.067      65.569     147.703
  O     -239.807      64.383     146.973
  C     -241.360      65.473     148.494
  O     -241.423      64.201     149.164
  C     -241.172      66.628     149.501
  N     -241.717      67.902     149.020
  C     -243.100      67.950     148.804
  O     -243.804      66.963     149.014
  N     -243.652      69.114     148.323
  C     -242.899      70.142     148.096
  N     -243.502      71.264     147.618
  C     -241.440      70.140     148.319
  C     -240.923      69.002     148.777
  O     -235.171      67.568     151.014
  O     -235.564      68.568     148.645
  H     -241.578      63.530     148.473
  H     -234.482      66.935     150.697
  H     -240.850      71.019     148.104
  H     -239.858      68.923     148.967
  H     -241.640      66.389     150.463
  H     -242.252      65.549     147.874
  H     -240.126      66.433     147.034
  H     -238.900      64.887     149.413
  H     -244.493      71.216     147.418
  H     -237.257      65.665     147.688
  H     -242.986      72.061     147.270
  H     -237.864      67.325     147.923
  P     -239.764      64.497     145.372
  C     -237.481      63.506     144.606
  O     -238.224      64.667     144.959
  O     -240.381      65.944     145.094
  O     -240.506      63.422     144.643
  H     -240.893      65.954     144.262
  H     -236.478      63.786     144.358
  H     -237.938      63.033     143.762
  H     -237.468      62.826     145.432

 6  7  8  9  10  11  12  13  14  15  16  26  30  31  32  33  35 0
 6-311+G(2d,p)
 ****
 37  38 0
 6-311+G(2d,p)
 ****
 1  2  3  4  5  17  18  19  20  21  22  23  24  25 0
 3-21G
 ****
 27  28  29  34  36  39  40  41  42  43  44  45  46 0
 3-21G
 ****


