%nproc=1
%NoSave
%Mem=1900MB
#P OB98/GEN NMR

erre ene a

0 1
  C       10.543     249.743    -207.873
  O       10.938     249.125    -206.659
  P       12.066     247.971    -206.743
  C       12.227     245.699    -207.987
  O       11.386     246.779    -207.587
  C       11.463     244.379    -207.893
  O       10.247     244.464    -208.678
  C       12.218     243.171    -208.441
  O       13.149     242.662    -207.503
  C       11.073     242.183    -208.675
  O       10.730     241.535    -207.434
  C        9.933     243.127    -209.128
  N        6.740     244.199    -212.912
  C        6.567     244.335    -211.543
  N        5.392     244.843    -211.137
  N        7.479     243.992    -210.659
  C        8.619     243.527    -211.221
  C        8.906     243.350    -212.563
  C        7.891     243.681    -213.527
  O        7.936     243.529    -214.746
  N       10.177     242.853    -212.742
  C       10.674     242.782    -211.521
  N        9.738     243.142    -210.560
  O       12.107     247.396    -205.255
  O       13.417     248.433    -207.214
  H       11.550     241.097    -207.127
  H       12.979     246.994    -205.079
  H        6.023     244.499    -213.558
  H       11.694     242.483    -211.292
  H        8.977     242.845    -208.640
  H       11.325     241.414    -209.393
  H        4.712     245.259    -211.764
  H       12.700     243.407    -209.395
  H        5.257     244.988    -210.142
  H       11.189     244.215    -206.839
  H       13.102     245.647    -207.313
  H       12.584     245.875    -209.012
  P       14.622     242.336    -208.056
  C       15.566     240.649    -209.817
  O       14.437     241.105    -209.084
  O       15.356     241.692    -206.798
  O       15.353     243.528    -208.590
  H       16.326     241.820    -206.868
  H       16.483     240.723    -209.223
  H       15.660     241.260    -210.721
  H       15.393     239.608    -210.095
  H        9.796     250.482    -207.671
  H       10.143     249.004    -208.536
  H       11.392     250.209    -208.329

 3  4  5  6  7  8  9  10  11  12  23  26  30  31  33  0
 6-311+G(2d,p)
 ****
 35  36  37  38 0
 6-311+G(2d,p)
 ****
 1  2  13  14  15  16  17  18  19  20  21  22  24  25  27  28  29 0
 3-21G
 ****
 32  34  39  40  41  42  43  44  45  46  47  48  49 0
 3-21G
 ****


