%nproc=1
%NoSave
%Mem=1900MB
#P OB98/GEN NMR

erre ene a

0 1
  C      180.629    -136.343      57.145
  O      180.823    -135.166      57.904
  H      180.201    -137.111      57.793
  H      181.590    -136.698      56.767
  H      179.943    -136.160      56.313
  P      181.130    -133.819      57.086
  C      183.535    -134.700      56.665
  O      182.724    -133.624      57.113
  C      184.992    -134.456      57.043
  O      185.813    -135.570      56.631
  C      185.608    -133.212      56.408
  O      185.295    -132.039      57.147
  C      187.087    -133.545      56.512
  O      187.539    -133.328      57.866
  C      187.099    -135.045      56.192
  N      190.452    -135.436      52.407
  C      190.632    -135.014      53.711
  N      191.883    -134.636      54.052
  N      189.675    -134.964      54.601
  C      188.471    -135.349      54.112
  C      188.166    -135.778      52.839
  C      189.237    -135.846      51.873
  O      189.130    -136.222      50.708
  N      186.837    -136.085      52.717
  C      186.334    -135.817      53.905
  N      187.284    -135.365      54.787
  O      180.591    -132.677      58.073
  O      180.485    -133.728      55.745
  H      187.349    -132.396      58.085
  H      179.725    -132.363      57.748
  H      191.221    -135.446      51.760
  H      185.295    -135.941      54.180
  H      187.878    -135.582      56.745
  H      187.706    -132.919      55.868
  H      192.661    -134.629      53.411
  H      185.326    -133.114      55.352
  H      192.039    -134.327      55.003
  H      185.049    -134.398      58.138
  H      183.450    -134.782      55.576
  H      183.181    -135.628      57.124
  P      184.612    -130.813      56.369
  C      186.788    -129.629      55.603
  O      185.642    -129.581      56.440
  O      183.439    -130.377      57.367
  O      184.084    -131.133      55.013
  H      182.570    -130.586      56.970
  H      187.378    -128.750      55.756
  H      186.480    -129.679      54.579
  H      187.369    -130.495      55.843

 6  7  8  9  10  11  12  13  14  15  26  29  33  34 0
 6-311+G(2d,p)
 ****
 36  38  39  40  41 0
 6-311+G(2d,p)
 ****
 1  2  3  4  5  16  17  18  19  20  21  22  23  24  25 0
 3-21G
 ****
 27  28  30  31  32  35  37  42  43  44  45  46  47 0
 3-21G
 ****
 48  49 0
 3-21G
 ****


