%nproc=1
%NoSave
%Mem=1900MB
#P OB98/GEN NMR

erre ene a

0 1
  C      507.241     529.360     -31.385
  O      506.701     530.386     -30.583
  P      507.601     531.621     -30.090
  C      506.954     531.756     -27.598
  O      506.796     532.328     -28.892
  C      506.574     532.775     -26.514
  O      507.525     533.885     -26.568
  C      505.162     533.353     -26.702
  O      504.323     533.262     -25.546
  C      505.434     534.763     -27.200
  O      504.355     535.659     -27.012
  C      506.742     535.092     -26.478
  N      507.430     536.246     -27.065
  C      507.344     537.451     -26.375
  O      506.752     537.607     -25.311
  N      507.939     538.526     -26.980
  C      508.482     538.552     -28.229
  O      508.899     539.571     -28.749
  C      508.504     537.252     -28.931
  C      508.012     536.169     -28.314
  O      508.055     532.551     -31.160
  O      508.801     530.902     -29.303
  H      504.094     535.622     -26.070
  H      508.521     530.354     -28.549
  H      507.882     539.413     -26.491
  H      508.919     537.236     -29.923
  H      508.013     535.203     -28.808
  H      506.578     535.298     -25.419
  H      505.620     534.706     -28.282
  H      504.606     532.795     -27.475
  H      506.675     532.280     -25.543
  H      508.000     531.465     -27.467
  H      506.342     530.851     -27.519
  P      503.375     532.022     -25.193
  C      501.195     533.388     -25.576
  O      501.967     532.602     -24.694
  O      503.985     530.988     -24.300
  O      503.024     531.395     -26.626
  H      502.862     530.440     -26.529
  H      500.587     534.084     -24.987
  H      500.527     532.743     -26.145
  H      501.825     533.961     -26.262
  H      506.481     528.639     -31.601
  H      508.045     528.885     -30.863
  H      507.607     529.778     -32.300

 3  4  5  6  7  8  9  10  11  12  13  23  28  29  30  31  32 0
 6-311+G(2d,p)
 ****
 33  34 0
 6-311+G(2d,p)
 ****
 1  2  14  15  16  17  18  19  20  21  22  24  25  26  27 0
 3-21G
 ****
 35  36  37  38  39  40  41  42  43  44  45 0
 3-21G
 ****


