%nproc=1
%NoSave
%Mem=1900MB
#P OB98/GEN NMR

erre ene a

0 1
  C       23.176    -127.699     201.915
  O       23.418    -129.089     201.812
  H       24.126    -127.169     201.801
  H       22.761    -127.465     202.899
  H       22.492    -127.359     201.133
  P       22.170    -130.084     201.674
  C       22.090    -129.442     199.176
  O       22.083    -130.500     200.126
  C       22.490    -129.960     197.792
  O       23.926    -130.230     197.796
  C       21.780    -131.267     197.379
  O       21.624    -131.236     195.953
  C       22.809    -132.301     197.795
  O       22.539    -133.561     197.238
  C       24.089    -131.592     197.346
  N       25.305    -132.188     197.886
  C       26.073    -132.966     197.023
  O       25.795    -133.154     195.840
  N       27.189    -133.540     197.575
  C       27.595    -133.419     198.872
  O       28.616    -133.939     199.307
  C       26.725    -132.610     199.743
  C       25.639    -132.040     199.217
  O       20.890    -129.606     202.272
  O       22.682    -131.429     202.375
  H       22.351    -131.467     203.293
  H       22.535    -133.510     196.259
  H       27.757    -134.105     196.963
  H       27.010    -132.513     200.781
  H       24.973    -131.437     199.829
  H       24.155    -131.565     196.254
  H       22.797    -132.432     198.881
  H       20.801    -131.388     197.853
  H       22.321    -129.168     197.053
  H       22.805    -128.684     199.511
  H       21.089    -128.992     199.131
  P       20.194    -131.220     195.225
  C       19.380    -128.776     195.370
  O       19.959    -129.780     194.548
  O       19.066    -131.652     196.105
  O       20.341    -132.210     193.973
  H       19.495    -132.682     193.833
  H       19.276    -127.871     194.808
  H       20.011    -128.600     196.216
  H       18.417    -129.101     195.705

 6  7  8  9  10  11  12  13  14  15  16  27  31  32  33  34  35 0
 6-311+G(2d,p)
 ****
 36  37 0
 6-311+G(2d,p)
 ****
 1  2  3  4  5  17  18  19  20  21  22  23  24  25 0
 3-21G
 ****
 26  28  29  30  38  39  40  41  42  43  44  45 0
 3-21G
 ****


