%nproc=1
%NoSave
%Mem=1900MB
#P OB98/GEN NMR

erre ene a

0 1
  C      176.081      48.458     -24.746
  O      176.730      47.262     -24.362
  H      176.162      48.567     -25.833
  H      176.557      49.323     -24.275
  H      175.023      48.422     -24.475
  P      176.823      46.909     -22.803
  C      175.120      46.682     -20.865
  O      175.349      47.113     -22.204
  C      174.040      47.536     -20.203
  O      174.499      48.894     -20.051
  C      172.740      47.625     -20.997
  O      172.003      46.424     -20.881
  C      172.106      48.847     -20.356
  O      171.509      48.517     -19.092
  C      173.343      49.760     -20.156
  N      173.524      50.740     -21.221
  C      173.313      52.078     -20.867
  O      172.979      52.372     -19.719
  N      173.470      53.043     -21.834
  C      173.845      52.712     -23.032
  N      173.988      53.715     -23.937
  C      174.111      51.316     -23.433
  C      173.924      50.392     -22.493
  O      177.905      47.604     -22.033
  O      177.007      45.319     -22.776
  H      170.927      47.751     -19.259
  H      177.952      45.085     -22.735
  H      174.433      51.087     -24.440
  H      174.098      49.342     -22.708
  H      173.267      50.301     -19.204
  H      171.321      49.279     -20.978
  H      172.954      47.855     -22.046
  H      173.858      47.134     -19.197
  H      173.811      54.660     -23.608
  H      176.068      46.790     -20.326
  H      174.426      53.595     -24.841
  H      174.830      45.625     -20.845
  P      170.881      46.019     -21.952
  C      170.913      45.375     -24.442
  O      171.633      45.969     -23.373
  O      169.647      46.855     -21.925
  O      170.610      44.472     -21.648
  H      170.042      44.372     -20.843
  H      171.509      45.398     -25.330
  H      170.006      45.919     -24.607
  H      170.681      44.360     -24.195

 6  7  8  9  10  11  12  13  14  15  16  26  30  31  32  33  35 0
 6-311+G(2d,p)
 ****
 37  38 0
 6-311+G(2d,p)
 ****
 1  2  3  4  5  17  18  19  20  21  22  23  24  25 0
 3-21G
 ****
 27  28  29  34  36  39  40  41  42  43  44  45  46 0
 3-21G
 ****


