%nproc=1
%NoSave
%Mem=1900MB
#P OB98/GEN NMR

erre ene a

0 1
  C      123.713      19.892     -26.550
  O      122.803      19.407     -25.579
  P      121.728      20.422     -24.965
  C      123.253      21.017     -22.946
  O      121.999      20.523     -23.387
  C      123.298      21.068     -21.417
  O      124.567      21.649     -20.990
  C      122.177      21.908     -20.787
  O      121.830      21.297     -19.536
  C      122.867      23.235     -20.531
  O      122.201      24.035     -19.567
  C      124.252      22.740     -20.104
  N      125.271      23.788     -20.154
  C      125.586      24.430     -18.961
  O      125.060      24.171     -17.880
  N      126.498      25.447     -19.055
  C      127.044      25.932     -20.207
  O      127.766      26.922     -20.236
  C      126.675      25.215     -21.436
  C      125.821      24.192     -21.355
  O      120.355      19.606     -25.064
  O      121.645      21.739     -25.662
  H      122.287      23.589     -18.705
  H      119.838      19.901     -25.836
  H      126.746      25.917     -18.199
  H      127.108      25.560     -22.366
  H      125.515      23.657     -22.249
  H      124.208      22.325     -19.088
  H      122.917      23.805     -21.466
  H      121.292      22.006     -21.422
  H      123.266      20.041     -21.032
  H      123.402      22.022     -23.342
  H      124.056      20.380     -23.334
  P      120.287      20.928     -19.283
  C      120.035      22.389     -17.131
  O      120.024      21.104     -17.714
  O      120.323      19.339     -19.493
  O      119.343      21.631     -20.202
  H      121.090      18.923     -19.067
  H      119.643      23.146     -17.816
  H      121.058      22.651     -16.852
  H      119.415      22.374     -16.231
  H      124.361      19.099     -26.859
  H      124.295      20.685     -26.129
  H      123.170      20.259     -27.396

 3  4  5  6  7  8  9  10  11  12  13  23  28  29  30  31  32 0
 6-311+G(2d,p)
 ****
 33  34 0
 6-311+G(2d,p)
 ****
 1  2  14  15  16  17  18  19  20  21  22  24  25  26 0
 3-21G
 ****
 27  35  36  37  38  39  40  41  42  43  44  45 0
 3-21G
 ****


