%nproc=1
%NoSave
%Mem=1900MB
#P OB98/GEN NMR

erre ene a

0 1
  C      174.215    -560.608     936.623
  O      175.472    -560.220     937.116
  H      173.691    -559.722     936.253
  H      173.617    -561.058     937.425
  H      174.330    -561.315     935.807
  P      176.451    -561.390     937.635
  C      175.647    -561.880     940.061
  O      175.593    -562.259     938.681
  C      174.899    -562.909     940.921
  O      173.482    -562.874     940.576
  C      175.394    -564.372     940.736
  O      175.307    -565.017     942.001
  C      174.341    -564.959     939.809
  O      174.282    -566.389     939.889
  C      173.100    -564.248     940.339
  N      169.758    -567.408     938.279
  C      170.717    -567.627     939.257
  N      170.788    -568.884     939.742
  N      171.518    -566.697     939.681
  C      171.294    -565.479     939.118
  C      170.380    -565.128     938.151
  C      169.517    -566.179     937.652
  O      168.651    -566.061     936.778
  N      170.486    -563.812     937.828
  C      171.468    -563.361     938.593
  N      171.998    -564.322     939.388
  O      177.487    -560.587     938.565
  O      177.145    -562.165     936.574
  H      175.171    -566.739     939.695
  H      178.279    -560.331     938.060
  H      169.170    -568.166     937.968
  H      171.831    -562.329     938.592
  H      172.733    -564.673     941.281
  H      174.551    -564.668     938.775
  H      170.176    -569.637     939.480
  H      176.406    -564.455     940.349
  H      171.467    -569.050     940.489
  H      174.984    -562.600     941.966
  H      175.162    -560.898     940.174
  H      176.694    -561.821     940.378
  P      176.525    -564.839     943.046
  C      177.841    -567.032     942.530
  O      177.794    -565.612     942.449
  O      176.072    -565.765     944.262
  O      176.734    -563.431     943.478
  H      176.463    -565.446     945.096
  H      178.749    -567.385     942.088
  H      177.005    -567.447     942.007
  H      177.804    -567.332     943.556

 6  7  8  9  10  11  12  13  14  15  26  29  33  34 0
 6-311+G(2d,p)
 ****
 36  38  39  40  41 0
 6-311+G(2d,p)
 ****
 1  2  3  4  5  16  17  18  19  20  21  22  23  24  25 0
 3-21G
 ****
 27  28  30  31  32  35  37  42  43  44  45  46  47 0
 3-21G
 ****
 48  49 0
 3-21G
 ****


