%nproc=1
%NoSave
%Mem=1900MB
#P OB98/GEN NMR

erre ene a

0 1
  C      147.984    -247.636     357.912
  O      146.687    -247.090     358.049
  H      147.915    -248.727     357.977
  H      148.627    -247.276     358.719
  H      148.413    -247.365     356.943
  P      146.535    -245.514     357.813
  C      147.323    -245.297     355.318
  O      147.611    -245.095     356.696
  C      147.718    -244.056     354.515
  O      146.754    -242.997     354.685
  C      149.029    -243.428     354.959
  O      150.153    -244.205     354.607
  C      148.949    -242.090     354.240
  O      149.302    -242.224     352.857
  C      147.445    -241.753     354.392
  N      147.202    -240.747     355.417
  C      147.407    -239.416     355.029
  O      147.762    -239.155     353.879
  N      147.233    -238.424     355.961
  C      146.862    -238.728     357.166
  N      146.718    -237.699     358.044
  C      146.611    -240.111     357.609
  C      146.803    -241.062     356.695
  O      147.159    -244.898     359.151
  O      145.152    -245.047     357.502
  H      148.608    -242.777     352.448
  H      148.052    -245.223     359.351
  H      146.293    -240.315     358.622
  H      146.640    -242.103     356.940
  H      147.035    -241.379     353.445
  H      149.629    -241.352     354.670
  H      149.009    -243.232     356.039
  H      147.743    -244.334     353.453
  H      146.920    -236.764     357.708
  H      146.265    -245.530     355.169
  H      146.466    -237.815     359.013
  H      147.903    -246.163     354.981
  P      151.613    -243.816     355.143
  C      151.298    -244.907     357.451
  O      151.486    -243.690     356.739
  O      152.242    -242.636     354.476
  O      152.438    -245.176     354.975
  H      152.086    -245.933     355.475
  H      151.227    -244.700     358.498
  H      152.128    -245.557     357.271
  H      150.397    -245.379     357.119

 6  7  8  9  10  11  12  13  14  15  16  26  30  31  32  33  35 0
 6-311+G(2d,p)
 ****
 37  38 0
 6-311+G(2d,p)
 ****
 1  2  3  4  5  17  18  19  20  21  22  23  24  25 0
 3-21G
 ****
 27  28  29  34  36  39  40  41  42  43  44  45  46 0
 3-21G
 ****


