%nproc=1
%NoSave
%Mem=1900MB
#P OB98/GEN NMR

erre ene a

0 1
  C      332.514     361.256     325.085
  O      331.987     362.310     325.894
  P      332.621     363.777     325.764
  C      334.415     363.638     327.611
  O      334.164     363.715     326.214
  C      335.865     364.042     327.925
  O      336.142     365.384     327.435
  C      336.162     364.038     329.430
  O      337.527     363.658     329.674
  C      336.014     365.498     329.804
  O      336.694     365.803     331.021
  C      336.591     366.173     328.559
  N      337.947     371.066     329.212
  C      338.631     369.914     329.383
  N      338.216     368.650     329.165
  C      336.948     368.637     328.717
  C      336.128     369.731     328.487
  C      336.672     370.996     328.762
  N      335.965     372.169     328.617
  N      334.887     369.327     328.029
  C      334.945     368.015     328.033
  N      336.176     367.549     328.405
  O      331.832     364.881     326.384
  O      332.735     363.973     324.178
  H      337.646     365.650     330.870
  H      332.466     364.884     323.947
  H      339.651     370.025     329.744
  H      334.125     367.356     327.786
  H      337.689     366.150     328.559
  H      334.954     365.747     329.933
  H      335.508     363.393     330.021
  H      336.543     363.361     327.395
  H      334.226     362.624     327.966
  H      336.397     373.018     328.951
  H      334.974     372.120     328.425
  H      333.701     364.284     328.137
  P      337.744     362.182     330.277
  C      337.649     362.837     332.807
  O      337.039     362.186     331.711
  O      339.170     361.732     330.245
  O      336.776     361.299     329.358
  H      335.869     361.644     329.277
  H      336.954     362.835     333.651
  H      337.890     363.874     332.560
  H      338.556     362.305     333.100
  H      331.985     360.349     325.291
  H      333.552     361.121     325.306
  H      332.400     361.508     324.051

 3  4  5  6  7  8  9  10  11  12  22  25  29  30  31  32 0
 6-311+G(2d,p)
 ****
 33  36  37 0
 6-311+G(2d,p)
 ****
 1  2  13  14  15  16  17  18  19  20  21  23  24  26 0
 3-21G
 ****
 27  28  34  35  38  39  40  41  42  43  44  45  46  47  48 0
 3-21G
 ****


