%nproc=1
%NoSave
%Mem=1900MB
#P OB98/GEN NMR

erre ene a

0 1
  C     -148.269     185.924    -622.683
  O     -149.084     186.673    -621.799
  P     -150.614     186.993    -622.163
  C     -151.787     188.849    -623.471
  O     -150.615     188.063    -623.359
  C     -151.689     189.826    -624.647
  O     -150.832     190.948    -624.286
  C     -151.116     189.206    -625.940
  O     -151.778     189.849    -627.031
  C     -149.651     189.645    -625.896
  O     -149.022     189.615    -627.173
  C     -149.803     191.043    -625.299
  N     -145.324     193.331    -626.232
  C     -146.314     192.922    -627.057
  N     -147.477     192.282    -626.726
  C     -147.552     192.099    -625.415
  C     -146.608     192.426    -624.449
  C     -145.441     193.095    -624.897
  N     -144.441     193.538    -624.066
  N     -147.024     192.012    -623.188
  C     -148.189     191.453    -623.404
  N     -148.592     191.534    -624.703
  O     -151.481     187.359    -620.988
  O     -151.136     185.641    -622.863
  H     -148.166     190.087    -627.108
  H     -151.720     185.151    -622.265
  H     -146.159     193.129    -628.117
  H     -148.805     190.951    -622.641
  H     -150.154     191.779    -626.044
  H     -149.088     188.992    -625.221
  H     -151.224     188.125    -626.001
  H     -152.690     190.236    -624.839
  H     -151.886     189.430    -622.532
  H     -143.730     194.104    -624.479
  H     -144.629     193.622    -623.070
  H     -152.673     188.204    -623.573
  P     -152.483     188.955    -628.184
  C     -151.518     187.465    -630.021
  O     -151.385     187.923    -628.686
  O     -153.178     189.730    -629.247
  O     -153.502     188.030    -627.358
  H     -154.162     187.654    -627.961
  H     -152.272     186.684    -630.057
  H     -150.564     187.079    -630.385
  H     -151.836     188.285    -630.698
  H     -147.290     185.819    -622.264
  H     -148.202     186.431    -623.623
  H     -148.699     184.955    -622.830

 3  4  5  6  7  8  9  10  11  12  22  25  29  30  31  32 0
 6-311+G(2d,p)
 ****
 33  36  37 0
 6-311+G(2d,p)
 ****
 1  2  13  14  15  16  17  18  19  20  21  23  24  26 0
 3-21G
 ****
 27  28  34  35  38  39  40  41  42  43  44  45  46  47  48 0
 3-21G
 ****


