%nproc=1
%NoSave
%Mem=1900MB
#P OB98/GEN NMR

erre ene a

0 1
  C      -41.941     135.813     -40.925
  O      -41.401     134.806     -40.096
  H      -41.849     135.494     -41.965
  H      -41.381     136.742     -40.791
  H      -42.997     135.984     -40.704
  P      -41.693     134.862     -38.524
  C      -42.430     133.000     -36.896
  O      -41.572     133.363     -37.967
  C      -42.291     131.508     -36.568
  O      -42.674     130.734     -37.733
  C      -40.840     131.138     -36.243
  O      -40.756     130.020     -35.364
  C      -40.284     130.742     -37.601
  O      -39.143     129.888     -37.512
  C      -41.500     130.082     -38.246
  N      -40.825     127.573     -42.631
  C      -40.545     127.168     -41.341
  N      -40.018     125.928     -41.202
  N      -40.740     127.916     -40.287
  C      -41.204     129.154     -40.582
  C      -41.498     129.679     -41.820
  C      -41.309     128.828     -42.976
  O      -41.520     129.145     -44.142
  N      -41.938     130.975     -41.722
  C      -41.906     131.236     -40.431
  N      -41.491     130.154     -39.695
  O      -43.270     135.134     -38.442
  O      -40.917     135.891     -37.758
  H      -39.391     129.129     -36.952
  H      -43.502     135.527     -37.582
  H      -40.683     126.947     -43.404
  H      -42.186     132.179     -39.980
  H      -41.557     129.022     -37.969
  H      -39.967     131.651     -38.119
  H      -39.672     125.408     -41.994
  H      -40.280     131.967     -35.817
  H      -39.525     125.742     -40.325
  H      -42.983     131.234     -35.764
  H      -43.450     133.231     -37.211
  H      -42.218     133.610     -36.016
  P      -40.304     130.271     -33.848
  C      -40.642     128.884     -31.620
  O      -40.430     128.916     -33.014
  O      -41.464     131.195     -33.254
  O      -38.955     130.902     -33.703
  H      -41.111     132.073     -33.017
  H      -40.692     127.867     -31.290
  H      -41.561     129.380     -31.388
  H      -39.834     129.381     -31.125

 6  7  8  9  10  11  12  13  14  15  26  29  33  34 0
 6-311+G(2d,p)
 ****
 36  38  39  40  41 0
 6-311+G(2d,p)
 ****
 1  2  3  4  5  16  17  18  19  20  21  22  23  24  25 0
 3-21G
 ****
 27  28  30  31  32  35  37  42  43  44  45  46  47 0
 3-21G
 ****
 48  49 0
 3-21G
 ****


