%nproc=1
%NoSave
%Mem=1900MB
#P OB98/GEN NMR

erre ene a

0 1
  C      731.422     145.320    -201.967
  O      730.515     145.566    -203.021
  H      732.330     144.872    -202.378
  H      730.976     144.623    -201.246
  H      731.683     146.257    -201.464
  P      729.182     146.378    -202.663
  C      726.936     145.025    -202.819
  O      728.119     145.317    -202.083
  C      727.294     144.293    -204.109
  O      728.279     143.270    -203.875
  C      726.126     143.535    -204.730
  O      725.164     144.385    -205.308
  C      726.867     142.669    -205.745
  O      727.208     143.423    -206.921
  C      728.141     142.292    -204.950
  N      728.100     140.929    -204.436
  C      729.224     140.136    -204.712
  O      730.177     140.612    -205.336
  N      729.233     138.831    -204.296
  C      728.217     138.357    -203.635
  N      728.280     137.051    -203.257
  C      727.024     139.158    -203.298
  C      727.028     140.421    -203.732
  O      728.586     146.732    -204.102
  O      729.377     147.558    -201.765
  H      727.936     144.018    -206.662
  H      728.477     145.959    -204.684
  H      726.205     138.723    -202.748
  H      726.188     141.074    -203.532
  H      729.034     142.392    -205.578
  H      726.268     141.820    -206.078
  H      725.673     142.865    -203.991
  H      727.721     145.023    -204.813
  H      729.103     136.527    -203.522
  H      726.376     145.941    -203.039
  H      727.542     136.563    -202.774
  H      726.304     144.389    -202.189
  P      723.616     143.969    -205.339
  C      722.652     143.400    -207.658
  O      723.452     142.946    -206.568
  O      722.648     145.110    -205.344
  O      723.473     143.001    -204.070
  H      724.041     142.204    -204.098
  H      722.614     142.642    -208.412
  H      723.081     144.290    -208.068
  H      721.661     143.608    -207.311

 6  7  8  9  10  11  12  13  14  15  16  26  30  31  32  33  35 0
 6-311+G(2d,p)
 ****
 37  38 0
 6-311+G(2d,p)
 ****
 1  2  3  4  5  17  18  19  20  21  22  23  24  25 0
 3-21G
 ****
 27  28  29  34  36  39  40  41  42  43  44  45  46 0
 3-21G
 ****


