%nproc=1
%NoSave
%Mem=1900MB
#P OB98/GEN NMR

erre ene a

0 1
  C     -196.944    -484.633     216.116
  O     -195.650    -484.372     215.622
  H     -197.452    -483.678     216.272
  H     -196.889    -485.150     217.076
  H     -197.518    -485.225     215.398
  P     -194.649    -485.598     215.341
  C     -192.560    -484.392     216.230
  O     -193.211    -484.925     215.079
  C     -191.555    -483.302     215.840
  O     -190.446    -483.907     215.125
  C     -192.151    -482.213     214.934
  O     -191.776    -480.920     215.423
  C     -191.481    -482.458     213.587
  O     -191.431    -481.296     212.771
  C     -190.127    -483.016     214.036
  N     -189.424    -483.691     212.956
  C     -188.660    -482.871     212.106
  O     -188.610    -481.659     212.306
  N     -188.035    -483.435     211.030
  C     -188.183    -484.706     210.790
  N     -187.551    -485.198     209.696
  C     -189.001    -485.592     211.637
  C     -189.583    -485.032     212.694
  O     -195.112    -486.544     214.283
  O     -194.454    -486.303     216.769
  H     -192.346    -480.963     212.643
  H     -194.160    -487.233     216.625
  H     -189.101    -486.646     211.393
  H     -190.201    -485.609     213.381
  H     -189.485    -482.219     214.430
  H     -192.040    -483.232     213.048
  H     -193.238    -482.259     214.864
  H     -191.139    -482.871     216.760
  H     -187.013    -484.549     209.140
  H     -192.058    -485.214     216.753
  H     -187.617    -486.162     209.390
  H     -193.329    -483.956     216.880
  P     -192.934    -480.071     216.144
  C     -192.531    -477.559     215.616
  O     -192.330    -478.630     216.524
  O     -193.105    -480.803     217.552
  O     -194.211    -480.050     215.378
  H     -193.961    -481.277     217.586
  H     -192.075    -476.672     216.004
  H     -193.580    -477.393     215.486
  H     -192.089    -477.804     214.673

 6  7  8  9  10  11  12  13  14  15  16  26  30  31  32  33  35 0
 6-311+G(2d,p)
 ****
 37  38 0
 6-311+G(2d,p)
 ****
 1  2  3  4  5  17  18  19  20  21  22  23  24  25 0
 3-21G
 ****
 27  28  29  34  36  39  40  41  42  43  44  45  46 0
 3-21G
 ****


