%nproc=1
%NoSave
%Mem=1900MB
#P OB98/GEN NMR

erre ene a

0 1
  C      126.171      49.286      68.165
  O      125.395      48.105      68.205
  H      125.634      50.076      68.696
  H      126.319      49.597      67.128
  H      127.138      49.129      68.650
  P      126.092      46.767      67.660
  C      125.696      44.232      68.043
  O      125.477      45.554      68.511
  C      125.101      43.222      69.020
  O      125.915      43.135      70.211
  C      123.691      43.562      69.492
  O      122.707      43.148      68.555
  C      123.618      42.738      70.767
  O      123.394      41.352      70.438
  C      125.026      42.926      71.344
  N      125.088      44.343      76.210
  C      124.926      43.088      75.653
  N      124.744      42.066      76.516
  N      124.935      42.856      74.367
  C      125.114      43.974      73.624
  C      125.288      45.269      74.059
  C      125.284      45.510      75.484
  O      125.446      46.597      76.031
  N      125.451      46.133      73.009
  C      125.356      45.368      71.940
  N      125.145      44.049      72.259
  O      127.593      46.880      68.212
  O      126.072      46.592      66.179
  H      122.563      41.314      69.931
  H      128.202      46.501      67.549
  H      125.061      44.467      77.207
  H      125.435      45.716      70.920
  H      125.379      42.038      71.880
  H      122.802      43.047      71.421
  H      124.677      42.183      77.515
  H      123.596      44.625      69.739
  H      124.657      41.134      76.133
  H      125.120      42.236      68.539
  H      126.773      44.055      67.953
  H      125.233      44.121      67.058
  P      121.264      43.852      68.632
  C      119.271      43.912      66.969
  O      120.679      43.801      67.140
  O      121.629      45.398      68.833
  O      120.369      43.341      69.708
  H      120.880      45.866      69.249
  H      119.033      43.862      65.927
  H      118.936      44.847      67.366
  H      118.785      43.111      67.485

 6  7  8  9  10  11  12  13  14  15  26  29  33  34 0
 6-311+G(2d,p)
 ****
 36  38  39  40  41 0
 6-311+G(2d,p)
 ****
 1  2  3  4  5  16  17  18  19  20  21  22  23  24  25 0
 3-21G
 ****
 27  28  30  31  32  35  37  42  43  44  45  46  47 0
 3-21G
 ****
 48  49 0
 3-21G
 ****


