%nproc=1
%NoSave
%Mem=1900MB
#P OB98/GEN NMR

erre ene a

0 1
  C      -93.669     294.201     -40.400
  O      -93.798     295.197     -39.396
  P      -93.514     296.718     -39.840
  C      -91.037     296.714     -39.003
  O      -91.934     296.823     -40.102
  C      -89.613     296.508     -39.526
  O      -89.562     295.375     -40.414
  C      -89.060     297.693     -40.310
  O      -88.569     298.686     -39.428
  C      -87.976     297.018     -41.150
  O      -86.774     296.832     -40.380
  C      -88.628     295.674     -41.492
  N      -88.057     295.148     -46.495
  C      -87.106     295.278     -45.496
  N      -85.813     295.212     -45.890
  N      -87.394     295.448     -44.233
  C      -88.723     295.509     -43.987
  C      -89.760     295.411     -44.890
  C      -89.428     295.166     -46.273
  O      -90.234     294.943     -47.175
  N      -90.976     295.540     -44.271
  C      -90.673     295.682     -42.996
  N      -89.327     295.655     -42.770
  O      -93.742     297.533     -38.486
  O      -94.357     297.217     -40.966
  H      -86.551     297.668     -39.924
  H      -94.633     297.935     -38.469
  H      -87.774     294.999     -47.446
  H      -91.400     295.797     -42.201
  H      -87.898     294.856     -41.518
  H      -87.698     297.620     -42.021
  H      -85.516     295.104     -46.842
  H      -89.831     298.109     -40.970
  H      -85.105     295.308     -45.173
  H      -88.969     296.285     -38.660
  H      -91.321     295.856     -38.390
  H      -91.096     297.618     -38.396
  P      -88.718     300.218     -39.885
  C      -86.228     300.399     -40.608
  O      -87.587     300.493     -40.986
  O      -88.215     301.031     -38.596
  O      -90.102     300.615     -40.264
  H      -88.728     301.849     -38.501
  H      -85.644     300.093     -41.480
  H      -86.082     299.667     -39.807
  H      -85.881     301.378     -40.269
  H      -93.882     293.241     -39.979
  H      -92.670     294.208     -40.783
  H      -94.357     294.404     -41.194

 3  4  5  6  7  8  9  10  11  12  23  26  30  31 0
 6-311+G(2d,p)
 ****
 33  35  36  37  38 0
 6-311+G(2d,p)
 ****
 1  2  13  14  15  16  17  18  19  20  21  22  24  25 0
 3-21G
 ****
 27  28  29  32  34  39  40  41  42  43  44  45  46  47  48  49 0
 3-21G
 ****


