%nproc=1
%NoSave
%Mem=1900MB
#P OB98/GEN NMR

erre ene a

0 1
  C     1072.569    -222.667     442.886
  O     1073.958    -222.883     442.778
  H     1072.326    -222.461     443.933
  H     1072.026    -223.560     442.567
  H     1072.265    -221.810     442.282
  P     1074.580    -222.972     441.304
  C     1076.480    -221.269     441.809
  O     1075.324    -221.571     441.037
  C     1076.197    -220.077     442.727
  O     1075.021    -220.385     443.529
  C     1077.344    -219.753     443.697
  O     1077.400    -218.337     443.865
  C     1076.881    -220.392     444.994
  O     1077.468    -219.819     446.157
  C     1075.367    -220.158     444.909
  N     1074.613    -221.048     445.791
  C     1073.936    -220.462     446.861
  O     1073.856    -219.256     447.060
  N     1073.324    -221.341     447.718
  C     1073.348    -222.701     447.628
  O     1072.796    -223.429     448.449
  C     1074.079    -223.257     446.491
  C     1074.671    -222.420     445.640
  O     1073.286    -222.891     440.367
  O     1075.411    -224.183     441.024
  H     1072.933    -223.779     440.192
  H     1077.238    -220.389     446.916
  H     1072.830    -220.932     448.495
  H     1074.123    -224.334     446.393
  H     1075.244    -222.802     444.796
  H     1075.127    -219.119     445.146
  H     1077.111    -221.467     444.992
  H     1078.320    -220.134     443.380
  H     1075.944    -219.210     442.111
  H     1077.304    -221.008     441.134
  H     1076.765    -222.148     442.393
  P     1078.233    -217.499     442.777
  C     1076.404    -215.816     441.940
  O     1077.153    -217.004     441.700
  O     1079.034    -218.667     442.030
  O     1079.087    -216.434     443.385
  H     1078.516    -219.488     441.962
  H     1075.738    -215.643     441.121
  H     1077.073    -214.986     442.037
  H     1075.839    -215.927     442.842

 6  7  8  9  10  11  12  13  14  15  16  27  31  32  33  34  35 0
 6-311+G(2d,p)
 ****
 36  37 0
 6-311+G(2d,p)
 ****
 1  2  3  4  5  17  18  19  20  21  22  23  24  25 0
 3-21G
 ****
 26  28  29  30  38  39  40  41  42  43  44  45 0
 3-21G
 ****


