%nproc=1
%NoSave
%Mem=1900MB
#P OB98/GEN NMR

erre ene a

0 1
  C     -386.414     259.404    -321.212
  O     -387.248     258.974    -320.157
  H     -385.755     258.580    -321.501
  H     -385.798     260.245    -320.883
  H     -387.010     259.703    -322.079
  P     -388.430     259.967    -319.720
  C     -389.938     258.014    -318.917
  O     -389.258     259.212    -318.571
  C     -389.898     257.026    -317.744
  O     -390.152     257.721    -316.502
  C     -390.940     255.916    -317.831
  O     -390.514     254.846    -318.667
  C     -391.006     255.483    -316.371
  O     -389.857     254.668    -316.060
  C     -390.910     256.832    -315.639
  N     -394.948     256.775    -312.576
  C     -393.816     255.982    -312.566
  N     -393.748     255.026    -311.609
  N     -392.836     256.098    -313.424
  C     -393.041     257.090    -314.332
  C     -394.122     257.940    -314.435
  C     -395.195     257.799    -313.482
  O     -396.202     258.488    -313.429
  N     -393.966     258.814    -315.474
  C     -392.801     258.483    -316.016
  N     -392.207     257.435    -315.356
  O     -389.430     259.928    -320.975
  O     -388.015     261.365    -319.403
  H     -389.886     253.893    -316.658
  H     -389.819     260.817    -321.093
  H     -395.684     256.624    -311.903
  H     -392.353     258.970    -316.871
  H     -390.383     256.754    -314.689
  H     -391.892     254.889    -316.149
  H     -394.497     254.842    -310.956
  H     -391.923     256.305    -318.133
  H     -392.914     254.455    -311.562
  H     -388.889     256.612    -317.695
  H     -389.451     257.556    -319.785
  H     -390.983     258.255    -319.173
  P     -391.628     254.080    -319.528
  C     -389.594     252.975    -320.692
  O     -390.889     252.800    -320.150
  O     -391.834     255.041    -320.789
  O     -392.911     253.818    -318.806
  H     -392.715     254.889    -321.189
  H     -389.234     252.039    -321.066
  H     -388.934     253.332    -319.930
  H     -389.635     253.686    -321.491

 6  7  8  9  10  11  12  13  14  15  26  29  33  34 0
 6-311+G(2d,p)
 ****
 36  38  39  40  41 0
 6-311+G(2d,p)
 ****
 1  2  3  4  5  16  17  18  19  20  21  22  23  24  25 0
 3-21G
 ****
 27  28  30  31  32  35  37  42  43  44  45  46  47 0
 3-21G
 ****
 48  49 0
 3-21G
 ****


