%nproc=1
%NoSave
%Mem=1900MB
#P OB98/GEN NMR

erre ene a

0 1
  C      -81.987     -32.334    -296.105
  O      -81.204     -31.165    -296.254
  H      -81.340     -33.176    -295.851
  H      -82.699     -32.179    -295.290
  H      -82.541     -32.550    -297.023
  P      -80.300     -31.048    -297.574
  C      -77.974     -30.852    -296.440
  O      -79.004     -30.193    -297.161
  C      -77.243     -29.863    -295.529
  O      -78.189     -29.353    -294.547
  C      -76.053     -30.468    -294.765
  O      -75.005     -29.493    -294.714
  C      -76.605     -30.673    -293.366
  O      -75.591     -30.673    -292.367
  C      -77.575     -29.498    -293.253
  N      -78.206     -30.054    -288.238
  C      -77.190     -29.549    -288.968
  N      -77.125     -29.387    -290.306
  C      -78.284     -29.745    -290.885
  C      -79.409     -30.270    -290.272
  C      -79.337     -30.439    -288.879
  N      -80.341     -31.016    -288.133
  N      -80.377     -30.568    -291.214
  C      -79.835     -30.253    -292.373
  N      -78.571     -29.752    -292.226
  O      -81.148     -30.034    -298.481
  O      -80.024     -32.333    -298.281
  H      -76.003     -30.842    -291.498
  H      -81.798     -30.533    -299.010
  H      -76.310     -29.243    -288.408
  H      -80.295     -30.392    -293.340
  H      -77.071     -28.557    -293.002
  H      -77.139     -31.631    -293.319
  H      -75.672     -31.397    -295.204
  H      -76.918     -29.007    -296.136
  H      -77.256     -31.278    -297.149
  H      -80.154     -31.196    -287.156
  H      -81.140     -31.409    -288.609
  H      -78.409     -31.664    -295.850
  P      -73.499     -30.020    -294.868
  C      -72.501     -28.409    -293.079
  O      -72.502     -28.844    -294.436
  O      -73.299     -30.108    -296.454
  O      -73.247     -31.338    -294.207
  H      -72.699     -30.841    -296.678
  H      -71.784     -27.624    -292.957
  H      -72.244     -29.229    -292.442
  H      -73.474     -28.047    -292.820

 6  7  8  9  10  11  12  13  14  15  25  28  32  33  34  35 0
 6-311+G(2d,p)
 ****
 36  39  40 0
 6-311+G(2d,p)
 ****
 1  2  3  4  5  16  17  18  19  20  21  22  23  24 0
 3-21G
 ****
 26  27  29  30  31  37  38  41  42  43  44  45  46  47 0
 3-21G
 ****
 48 0
 3-21G
 ****


