%nproc=1
%NoSave
%Mem=1900MB
#P OB98/GEN NMR

erre ene a

0 1
  C      -63.660    -110.971     -78.385
  O      -63.882    -110.529     -77.061
  H      -64.581    -111.421     -78.767
  H      -62.868    -111.722     -78.406
  H      -63.390    -110.126     -79.025
  P      -62.631    -109.886     -76.292
  C      -63.446    -107.490     -76.877
  O      -62.389    -108.438     -76.938
  C      -62.920    -106.174     -76.310
  O      -61.806    -105.706     -77.106
  C      -63.938    -105.039     -76.329
  O      -64.874    -105.140     -75.273
  C      -63.023    -103.832     -76.195
  O      -62.691    -103.573     -74.823
  C      -61.775    -104.269     -76.995
  N      -61.704    -103.620     -78.298
  C      -61.248    -102.303     -78.296
  O      -60.923    -101.705     -77.273
  N      -61.214    -101.681     -79.516
  C      -61.618    -102.218     -80.701
  O      -61.632    -101.579     -81.747
  C      -62.076    -103.619     -80.647
  C      -62.106    -104.244     -79.466
  O      -61.396    -110.752     -76.822
  O      -62.729    -109.899     -74.802
  H      -61.127    -111.402     -76.146
  H      -62.178    -104.347     -74.516
  H      -60.901    -100.726     -79.531
  H      -62.400    -104.079     -81.574
  H      -62.461    -105.266     -79.399
  H      -60.860    -104.016     -76.441
  H      -63.494    -102.928     -76.584
  H      -64.439    -104.996     -77.305
  H      -62.563    -106.354     -75.287
  H      -64.240    -107.868     -76.224
  H      -63.855    -107.346     -77.883
  P      -66.324    -104.482     -75.472
  C      -67.417    -106.825     -75.954
  O      -67.166    -105.503     -76.383
  O      -65.983    -103.269     -76.454
  O      -66.989    -104.097     -74.195
  H      -65.283    -103.483     -77.095
  H      -67.990    -107.339     -76.698
  H      -67.964    -106.804     -75.035
  H      -66.488    -107.334     -75.805

 6  7  8  9  10  11  12  13  14  15  16  27  31  32  33  34  35 0
 6-311+G(2d,p)
 ****
 36  37 0
 6-311+G(2d,p)
 ****
 1  2  3  4  5  17  18  19  20  21  22  23  24  25 0
 3-21G
 ****
 26  28  29  30  38  39  40  41  42  43  44  45 0
 3-21G
 ****


