%nproc=1
%NoSave
%Mem=1900MB
#P OB98/GEN NMR

erre ene a

0 1
  C      843.747     232.387    1463.360
  O      842.458     232.048    1463.824
  H      844.317     231.461    1463.226
  H      844.269     233.018    1464.084
  H      843.678     232.899    1462.389
  P      841.451     233.237    1464.213
  C      841.829     232.912    1466.759
  O      840.893     232.889    1465.693
  C      841.142     232.558    1468.082
  O      840.105     233.555    1468.356
  C      840.456     231.173    1468.082
  O      840.496     230.668    1469.442
  C      839.048     231.535    1467.695
  O      838.157     230.468    1467.929
  C      838.853     232.834    1468.488
  N      837.726     233.602    1468.019
  C      837.086     234.428    1468.970
  O      837.491     234.449    1470.130
  N      836.014     235.180    1468.558
  C      835.564     235.065    1467.354
  N      834.476     235.824    1467.028
  C      836.164     234.176    1466.343
  C      837.235     233.489    1466.720
  O      840.392     233.547    1463.216
  O      842.408     234.491    1464.471
  H      838.145     230.222    1468.892
  H      842.359     235.102    1463.715
  H      835.730     234.105    1465.343
  H      837.752     232.805    1466.064
  H      838.706     232.599    1469.567
  H      838.978     231.744    1466.614
  H      840.942     230.462    1467.395
  H      841.907     232.631    1468.906
  H      834.090     236.406    1467.767
  H      842.250     233.916    1466.824
  H      834.023     235.812    1466.110
  H      842.650     232.197    1466.555
  P      841.690     229.723    1469.990
  C      840.489     227.509    1469.422
  O      841.089     228.332    1470.445
  O      842.561     230.392    1471.029
  O      842.567     229.356    1468.694
  H      843.487     229.248    1468.958
  H      840.125     226.604    1469.861
  H      841.221     227.275    1468.677
  H      839.676     228.038    1468.970

 6  7  8  9  10  11  12  13  14  15  16  26  30  31  32  33  35 0
 6-311+G(2d,p)
 ****
 37  38 0
 6-311+G(2d,p)
 ****
 1  2  3  4  5  17  18  19  20  21  22  23  24  25 0
 3-21G
 ****
 27  28  29  34  36  39  40  41  42  43  44  45  46 0
 3-21G
 ****


