%nproc=1
%NoSave
%Mem=1900MB
#P OB98/GEN NMR

erre ene a

0 1
  C     -103.834     210.088     193.120
  O     -103.373     211.406     192.904
  H     -103.164     209.595     193.828
  H     -103.833     209.525     192.182
  H     -104.841     210.109     193.542
  P     -104.193     212.290     191.845
  C     -104.394     212.270     189.275
  O     -103.757     211.704     190.413
  C     -103.502     212.134     188.042
  O     -102.305     212.930     188.248
  C     -103.056     210.693     187.763
  O     -102.990     210.490     186.350
  C     -101.652     210.650     188.340
  O     -100.860     209.618     187.760
  C     -101.170     212.071     188.052
  N      -97.040     215.024     188.445
  C      -98.031     214.970     187.528
  N      -99.112     214.163     187.514
  C      -99.141     213.391     188.617
  C      -98.208     213.335     189.634
  C      -97.104     214.198     189.516
  N      -96.073     214.237     190.424
  N      -98.569     212.381     190.566
  C      -99.707     211.878     190.123
  N     -100.080     212.446     188.936
  O     -104.058     213.767     191.994
  O     -105.677     211.716     192.014
  H     -100.792     209.783     186.796
  H     -105.685     210.740     192.026
  H      -97.939     215.659     186.691
  H     -100.284     211.100     190.610
  H     -100.811     212.194     187.022
  H     -101.700     210.468     189.420
  H     -103.709     209.947     188.215
  H     -104.025     212.562     187.178
  H     -104.612     213.329     189.453
  H      -95.321     214.889     190.263
  H      -96.102     213.634     191.234
  H     -105.342     211.741     189.121
  P     -103.224     209.016     185.765
  C     -101.939     206.784     185.697
  O     -102.070     208.049     186.327
  O     -103.452     208.934     184.293
  O     -104.515     208.515     186.575
  H     -105.111     208.042     185.961
  H     -101.143     206.237     186.157
  H     -101.722     206.923     184.658
  H     -102.853     206.238     185.800

 6  7  8  9  10  11  12  13  14  15  25  28  32  33  34  35 0
 6-311+G(2d,p)
 ****
 36  39  40 0
 6-311+G(2d,p)
 ****
 1  2  3  4  5  16  17  18  19  20  21  22  23  24 0
 3-21G
 ****
 26  27  29  30  31  37  38  41  42  43  44  45  46  47 0
 3-21G
 ****
 48 0
 3-21G
 ****


