%nproc=1
%NoSave
%Mem=1900MB
#P OB98/GEN NMR

erre ene a

0 1
  C      482.172    -617.200     661.618
  O      483.059    -616.493     660.746
  P      482.417    -615.295     659.884
  C      481.438    -616.732     657.953
  O      481.172    -615.878     659.052
  C      480.162    -617.195     657.251
  O      479.389    -616.039     656.797
  C      480.413    -618.075     656.019
  O      479.337    -619.015     655.937
  C      480.303    -617.099     654.867
  O      480.032    -617.784     653.635
  C      479.174    -616.186     655.370
  N      479.134    -614.879     654.692
  C      478.034    -614.627     653.872
  O      477.180    -615.507     653.679
  N      477.943    -613.414     653.251
  C      478.891    -612.540     653.392
  N      478.747    -611.352     652.748
  C      480.101    -612.795     654.203
  C      480.154    -613.976     654.821
  O      483.529    -615.019     658.760
  O      482.133    -614.070     660.682
  H      479.160    -618.245     653.722
  H      483.718    -614.066     658.718
  H      480.885    -612.042     654.276
  H      481.007    -614.249     655.441
  H      478.195    -616.665     655.225
  H      481.240    -616.540     654.753
  H      481.358    -618.610     656.059
  H      479.543    -617.722     657.976
  H      477.896    -611.220     652.203
  H      481.988    -617.620     658.300
  H      479.416    -610.613     652.782
  H      482.117    -616.225     657.263
  P      479.677    -620.577     656.051
  C      478.878    -621.368     653.738
  O      479.996    -621.032     654.545
  O      478.212    -621.209     656.271
  O      480.626    -621.028     657.101
  H      478.290    -622.164     656.421
  H      479.221    -621.530     652.710
  H      478.148    -620.566     653.731
  H      478.421    -622.297     654.101
  H      482.713    -617.967     662.132
  H      481.385    -617.643     661.044
  H      481.754    -616.519     662.330

 3  4  5  6  7  8  9  10  11  12  13  21  23  27  28  29  30  32 0
 6-311+G(2d,p)
 ****
 34  35 0
 6-311+G(2d,p)
 ****
 1  2  14  15  16  17  18  19  20  22  24  25  26 0
 3-21G
 ****
 31  33  36  37  38  39  40  41  42  43  44  45  46 0
 3-21G
 ****


