%nproc=1
%NoSave
%Mem=1900MB
#P OB98/GEN NMR

erre ene a

0 1
  C       -7.528     476.260    -280.271
  O       -8.246     477.483    -280.227
  P       -9.661     477.483    -279.462
  C      -11.868     477.698    -280.819
  O      -10.726     476.909    -280.518
  C      -11.498     478.834    -281.778
  O      -10.705     478.323    -282.861
  C      -12.694     479.518    -282.425
  O      -13.307     480.411    -281.521
  C      -12.030     480.202    -283.618
  O      -11.516     481.490    -283.250
  C      -10.889     479.226    -283.979
  N      -11.139     478.499    -285.212
  C      -11.018     479.247    -286.391
  O      -10.734     480.453    -286.338
  N      -11.264     478.632    -287.596
  C      -11.605     477.373    -287.611
  N      -11.823     476.811    -288.834
  C      -11.762     476.563    -286.396
  C      -11.527     477.177    -285.241
  O      -10.026     479.037    -279.371
  O       -9.648     476.818    -278.125
  H      -12.297     482.010    -282.955
  H      -10.611     479.214    -278.608
  H      -12.045     475.520    -286.469
  H      -11.620     476.656    -284.298
  H       -9.941     479.775    -284.098
  H      -12.745     480.371    -284.434
  H      -13.413     478.772    -282.779
  H      -10.888     479.568    -281.228
  H      -11.710     477.398    -289.655
  H      -12.273     478.136    -279.898
  H      -12.069     475.841    -288.957
  H      -12.636     477.058    -281.262
  P      -14.827     480.835    -281.797
  C      -15.022     483.344    -282.290
  O      -14.731     482.068    -282.820
  O      -15.236     481.557    -280.431
  O      -15.777     479.742    -282.168
  H      -16.187     481.774    -280.453
  H      -14.760     484.100    -283.032
  H      -14.430     483.530    -281.383
  H      -16.085     483.421    -282.066
  H       -6.613     476.403    -280.806
  H       -8.118     475.517    -280.766
  H       -7.312     475.937    -279.274

 3  4  5  6  7  8  9  10  11  12  13  21  23  27  28  29  30  32 0
 6-311+G(2d,p)
 ****
 34  35 0
 6-311+G(2d,p)
 ****
 1  2  14  15  16  17  18  19  20  22  24  25  26 0
 3-21G
 ****
 31  33  36  37  38  39  40  41  42  43  44  45  46 0
 3-21G
 ****


