%nproc=1
%NoSave
%Mem=1900MB
#P OB98/GEN NMR

erre ene a

0 1
  C     -102.711    -236.676    -497.336
  O     -103.059    -237.485    -498.443
  H     -101.679    -236.899    -497.045
  H     -103.371    -236.889    -496.491
  H     -102.781    -235.617    -497.604
  P     -104.577    -237.375    -498.956
  C     -103.793    -235.639    -500.741
  O     -104.641    -235.922    -499.636
  C     -104.637    -235.282    -501.961
  O     -105.531    -234.191    -501.658
  C     -103.826    -234.820    -503.169
  O     -103.231    -235.898    -503.880
  C     -104.905    -234.131    -503.977
  O     -105.733    -235.118    -504.623
  C     -105.690    -233.390    -502.863
  N     -105.215    -232.024    -502.644
  C     -105.485    -231.093    -503.654
  O     -106.078    -231.435    -504.680
  N     -105.042    -229.802    -503.501
  C     -104.400    -229.463    -502.426
  N     -103.968    -228.172    -502.334
  C     -104.109    -230.401    -501.330
  C     -104.539    -231.647    -501.501
  O     -105.416    -237.164    -497.609
  O     -105.063    -238.498    -499.813
  H     -106.070    -235.704    -503.923
  H     -106.359    -236.961    -497.827
  H     -103.558    -230.076    -500.458
  H     -104.359    -232.395    -500.735
  H     -106.761    -233.357    -503.098
  H     -104.510    -233.482    -504.765
  H     -103.071    -234.076    -502.884
  H     -105.258    -236.156    -502.211
  H     -104.129    -227.563    -503.129
  H     -103.184    -236.528    -500.946
  H     -103.312    -227.864    -501.624
  H     -103.129    -234.805    -500.502
  P     -101.809    -235.633    -504.580
  C     -100.742    -237.239    -502.822
  O     -100.682    -235.975    -503.482
  O     -101.748    -234.042    -504.687
  O     -101.624    -236.301    -505.910
  H     -101.331    -233.761    -505.526
  H      -99.932    -237.317    -502.127
  H     -100.668    -238.023    -503.546
  H     -101.671    -237.324    -502.298

 6  7  8  9  10  11  12  13  14  15  16  26  30  31  32  33  35 0
 6-311+G(2d,p)
 ****
 37  38 0
 6-311+G(2d,p)
 ****
 1  2  3  4  5  17  18  19  20  21  22  23  24  25 0
 3-21G
 ****
 27  28  29  34  36  39  40  41  42  43  44  45  46 0
 3-21G
 ****


