%nproc=1
%NoSave
%Mem=1900MB
#P OB98/GEN NMR

erre ene a

0 1
  C     -520.156    -158.516    -348.871
  O     -520.219    -159.023    -347.552
  P     -520.920    -160.437    -347.268
  C     -518.869    -161.656    -346.313
  O     -520.168    -161.138    -346.036
  C     -517.893    -161.281    -345.194
  O     -517.579    -159.869    -345.236
  C     -518.439    -161.521    -343.798
  O     -518.480    -162.901    -343.467
  C     -517.469    -160.688    -342.962
  O     -516.253    -161.402    -342.730
  C     -517.228    -159.480    -343.890
  N     -517.955    -158.293    -343.463
  C     -517.451    -157.617    -342.348
  O     -516.484    -158.071    -341.730
  N     -518.054    -156.450    -341.963
  C     -519.140    -156.058    -342.545
  N     -519.659    -154.859    -342.161
  C     -519.802    -156.825    -343.624
  C     -519.147    -157.915    -344.041
  O     -521.104    -161.311    -348.464
  O     -522.338    -160.047    -346.638
  H     -523.047    -160.536    -347.109
  H     -516.410    -161.990    -341.966
  H     -520.743    -156.499    -344.036
  H     -519.540    -158.538    -344.842
  H     -516.156    -159.241    -343.920
  H     -517.883    -160.431    -341.980
  H     -519.455    -161.101    -343.709
  H     -516.961    -161.846    -345.347
  H     -519.173    -154.353    -341.437
  H     -518.516    -161.240    -347.263
  H     -520.288    -154.320    -342.751
  H     -518.931    -162.742    -346.414
  P     -519.923    -163.556    -343.265
  C     -519.242    -165.831    -344.309
  O     -519.723    -165.151    -343.171
  O     -520.628    -163.356    -344.696
  O     -520.736    -162.950    -342.166
  H     -521.581    -163.168    -344.573
  H     -518.826    -166.793    -343.995
  H     -518.458    -165.263    -344.813
  H     -520.060    -166.011    -345.006
  H     -519.657    -157.570    -348.866
  H     -521.148    -158.394    -349.254
  H     -519.616    -159.201    -349.491

 3  4  5  6  7  8  9  10  11  12  13  24  27  28  29  30  32 0
 6-311+G(2d,p)
 ****
 34  35 0
 6-311+G(2d,p)
 ****
 1  2  14  15  16  17  18  19  20  21  22  23  25  26 0
 3-21G
 ****
 31  33  36  37  38  39  40  41  42  43  44  45  46 0
 3-21G
 ****


