%nproc=1
%NoSave
%Mem=1900MB
#P OB98/GEN NMR

erre ene a

0 1
  C       14.419    -173.822      65.418
  O       15.265    -174.196      64.319
  P       16.815    -173.781      64.402
  C       16.898    -173.702      61.782
  O       17.450    -174.206      62.991
  C       16.771    -174.827      60.756
  O       15.623    -175.662      61.050
  C       16.567    -174.346      59.325
  O       17.773    -173.837      58.771
  C       16.046    -175.615      58.664
  O       17.134    -176.498      58.344
  C       15.184    -176.232      59.795
  N       13.753    -176.039      59.591
  C       13.039    -177.169      59.194
  O       13.568    -178.262      58.993
  N       11.692    -176.990      59.007
  C       11.013    -175.816      59.152
  O        9.800    -175.719      58.988
  C       11.826    -174.648      59.526
  C       13.138    -174.806      59.723
  O       17.367    -174.868      65.435
  O       17.015    -172.357      64.807
  H       16.935    -175.734      65.346
  H       16.770    -177.178      57.744
  H       11.157    -177.799      58.735
  H       11.325    -173.693      59.624
  H       13.757    -173.957      59.998
  H       15.374    -177.310      59.868
  H       15.501    -175.413      57.735
  H       15.791    -173.569      59.300
  H       17.678    -175.452      60.821
  H       17.544    -172.917      61.377
  H       15.923    -173.249      61.998
  P       17.649    -172.531      57.838
  C       19.303    -173.739      56.213
  O       18.920    -172.548      56.862
  O       17.975    -171.368      58.892
  O       16.320    -172.397      57.167
  H       18.734    -171.573      59.462
  H       19.937    -173.484      55.355
  H       18.436    -174.294      55.853
  H       19.879    -174.363      56.901
  H       13.421    -174.159      65.231
  H       14.422    -172.757      65.524
  H       14.784    -174.271      66.318

 3  4  5  6  7  8  9  10  11  12  13  24  28  29  30  31  32 0
 6-311+G(2d,p)
 ****
 33  34 0
 6-311+G(2d,p)
 ****
 1  2  14  15  16  17  18  19  20  21  22  23  25  26  27 0
 3-21G
 ****
 35  36  37  38  39  40  41  42  43  44  45 0
 3-21G
 ****


