%nproc=1
%NoSave
%Mem=1900MB
#P OB98/GEN NMR

erre ene a

0 1
  C      324.839      21.224    -427.147
  O      324.749      22.347    -427.995
  H      325.873      21.127    -426.798
  H      324.569      20.315    -427.693
  H      324.189      21.337    -426.275
  P      323.304      22.835    -428.482
  C      322.121      22.851    -430.773
  O      323.063      22.200    -429.932
  C      322.487      22.638    -432.238
  O      323.653      23.421    -432.581
  C      322.847      21.196    -432.587
  O      321.683      20.393    -432.674
  C      323.592      21.399    -433.895
  O      322.669      21.571    -434.987
  C      324.363      22.708    -433.613
  N      325.763      22.477    -433.227
  C      326.720      23.176    -433.950
  O      326.450      23.922    -434.887
  N      328.023      22.979    -433.552
  C      328.443      22.105    -432.591
  O      329.622      21.925    -432.315
  C      327.383      21.371    -431.892
  C      326.112      21.585    -432.231
  O      323.050      24.306    -428.390
  O      322.295      22.010    -427.555
  H      322.028      20.830    -434.927
  H      321.976      22.575    -426.826
  H      328.734      23.470    -434.074
  H      327.678      20.664    -431.124
  H      325.317      21.049    -431.729
  H      324.362      23.348    -434.498
  H      324.229      20.544    -434.154
  H      323.543      20.789    -431.843
  H      321.652      22.987    -432.853
  H      322.131      23.924    -430.551
  H      321.119      22.455    -430.562
  P      321.737      18.826    -432.332
  C      321.034      16.820    -433.747
  O      321.774      18.028    -433.723
  O      320.704      18.354    -431.369
  O      323.213      18.614    -431.750
  H      323.179      18.490    -430.779
  H      321.122      16.367    -434.712
  H      320.004      17.028    -433.543
  H      321.417      16.153    -433.003

 6  7  8  9  10  11  12  13  14  15  16  26  31  32  33  34  35 0
 6-311+G(2d,p)
 ****
 36  37 0
 6-311+G(2d,p)
 ****
 1  2  3  4  5  17  18  19  20  21  22  23  24  25 0
 3-21G
 ****
 27  28  29  30  38  39  40  41  42  43  44  45 0
 3-21G
 ****


