%nproc=1
%NoSave
%Mem=1900MB
#P OB98/GEN NMR

erre ene a

0 1
  C      109.523    -894.240     674.695
  O      109.445    -894.150     673.284
  P      109.925    -892.770     672.609
  C      111.361    -892.310     670.454
  O      110.460    -893.150     671.141
  C      112.154    -893.130     669.397
  O      112.789    -894.250     670.045
  C      111.286    -893.720     668.302
  O      110.919    -892.750     667.332
  C      112.212    -894.830     667.777
  O      113.206    -894.270     666.896
  C      112.874    -895.330     669.081
  N      112.292    -896.550     669.597
  C      112.474    -897.710     668.848
  O      113.111    -897.710     667.787
  N      111.915    -898.860     669.340
  C      111.116    -898.950     670.458
  O      110.606    -900.000     670.819
  C      110.927    -897.690     671.192
  C      111.499    -896.580     670.739
  O      111.242    -892.460     673.452
  O      108.881    -891.700     672.652
  H      111.654    -893.280     673.797
  H      113.741    -895.030     666.586
  H      112.054    -899.710     668.807
  H      110.291    -897.730     672.083
  H      111.360    -895.650     671.282
  H      113.939    -895.500     668.913
  H      111.662    -895.610     667.224
  H      110.386    -894.190     668.726
  H      112.926    -892.480     668.988
  H      112.068    -891.870     671.159
  H      110.802    -891.510     669.959
  P      109.557    -893.020     666.511
  C      108.240    -891.660     664.713
  O      109.286    -891.690     665.670
  O      108.482    -892.960     667.703
  O      109.560    -894.300     665.746
  H      108.646    -892.230     668.336
  H      107.973    -890.620     664.516
  H      107.343    -892.190     665.082
  H      108.573    -892.130     663.789
  H      109.176    -895.202     675.011
  H      108.913    -893.479     675.135
  H      110.538    -894.108     675.005

 3  4  5  6  7  8  9  10  11  12  13  24  28  29  30  31  32 0
 6-311+G(2d,p)
 ****
 33  34 0
 6-311+G(2d,p)
 ****
 1  2  14  15  16  17  18  19  20  21  22  23  25  26  27 0
 3-21G
 ****
 35  36  37  38  39  40  41  42  43  44  45 0
 3-21G
 ****


