%nproc=1
%NoSave
%Mem=1900MB
#P OB98/GEN NMR

erre ene a

0 1
  C       80.745     245.694     336.010
  O       80.839     245.190     334.690
  H       80.372     246.722     335.965
  H       81.734     245.705     336.483
  H       80.055     245.099     336.607
  P       81.217     243.647     334.479
  C       83.190     242.338     335.507
  O       82.780     243.499     334.797
  C       84.444     241.747     334.854
  O       85.601     242.546     335.174
  C       84.760     240.325     335.311
  O       83.905     239.385     334.698
  C       86.224     240.224     334.904
  O       86.347     239.921     333.501
  C       86.744     241.650     335.203
  N       87.448     241.737     336.484
  C       88.815     241.477     336.453
  O       89.422     241.148     335.426
  N       89.474     241.574     337.654
  C       88.889     241.784     338.865
  O       89.507     241.772     339.925
  C       87.441     242.033     338.845
  C       86.797     241.993     337.676
  O       80.777     243.044     333.188
  O       80.526     242.918     335.731
  H       85.820     240.596     333.028
  H       79.730     242.444     335.428
  H       90.455     241.371     337.648
  H       86.939     242.214     339.785
  H       85.723     242.175     337.639
  H       87.424     241.986     334.411
  H       86.752     239.440     335.446
  H       84.703     240.265     336.400
  H       84.302     241.778     333.761
  H       82.380     241.603     335.472
  H       83.393     242.607     336.554
  P       83.658     237.967     335.396
  C       85.042     235.875     335.957
  O       84.993     237.096     335.234
  O       82.392     237.267     335.004
  O       83.647     238.315     336.965
  H       82.778     238.064     337.350
  H       85.976     235.387     335.770
  H       84.239     235.242     335.642
  H       84.949     236.076     337.004

 6  7  8  9  10  11  12  13  14  15  16  26  31  32  33  34  35 0
 6-311+G(2d,p)
 ****
 36  37 0
 6-311+G(2d,p)
 ****
 1  2  3  4  5  17  18  19  20  21  22  23  24  25 0
 3-21G
 ****
 27  28  29  30  38  39  40  41  42  43  44  45 0
 3-21G
 ****


