%nproc=1
%NoSave
%Mem=1900MB
#P OB98/GEN NMR

erre ene a

0 1
  C     -553.402     227.463     -87.499
  O     -553.954     226.334     -88.139
  P     -554.249     226.329     -89.716
  C     -555.873     227.570     -91.292
  O     -555.560     227.241     -89.939
  C     -556.502     228.967     -91.366
  O     -555.491     229.961     -90.993
  C     -557.016     229.322     -92.780
  O     -558.381     229.769     -92.823
  C     -555.988     230.332     -93.269
  O     -556.446     231.163     -94.315
  C     -555.588     231.030     -91.960
  N     -554.344     231.789     -92.079
  C     -554.325     232.840     -92.986
  O     -555.288     233.176     -93.683
  N     -553.129     233.486     -93.142
  C     -551.942     233.116     -92.568
  O     -550.884     233.675     -92.831
  C     -552.013     231.969     -91.651
  C     -553.192     231.377     -91.428
  O     -554.320     224.981     -90.354
  O     -553.089     227.269     -90.300
  H     -555.786     231.867     -94.455
  H     -553.083     228.182     -89.953
  H     -553.098     234.251     -93.800
  H     -551.089     231.647     -91.191
  H     -553.277     230.531     -90.761
  H     -556.373     231.707     -91.613
  H     -555.128     229.771     -93.654
  H     -557.001     228.444     -93.437
  H     -557.316     229.001     -90.631
  H     -556.582     226.841     -91.685
  H     -554.963     227.516     -91.907
  P     -559.462     229.302     -93.910
  C     -559.687     229.498     -96.495
  O     -559.079     229.979     -95.315
  O     -560.885     229.463     -93.492
  O     -559.118     227.751     -94.143
  H     -559.930     227.276     -94.397
  H     -558.999     229.661     -97.332
  H     -560.607     230.060     -96.681
  H     -559.913     228.428     -96.429
  H     -553.286     227.260     -86.455
  H     -554.054     228.301     -87.629
  H     -552.447     227.685     -87.928

 3  4  5  6  7  8  9  10  11  12  13  23  28  29  30  31  32 0
 6-311+G(2d,p)
 ****
 33  34 0
 6-311+G(2d,p)
 ****
 1  2  14  15  16  17  18  19  20  21  22  24  25  26  27 0
 3-21G
 ****
 35  36  37  38  39  40  41  42  43  44  45 0
 3-21G
 ****


