%nproc=1
%NoSave
%Mem=1900MB
#P OB98/GEN NMR

erre ene a

0 1
  C      -40.309     296.134     -26.510
  O      -40.003     297.511     -26.435
  H      -40.941     295.964     -27.386
  H      -40.855     295.809     -25.619
  H      -39.393     295.546     -26.623
  P      -39.177     298.039     -25.163
  C      -41.100     299.629     -24.464
  O      -39.754     299.517     -24.905
  C      -41.725     300.919     -24.996
  O      -41.015     302.078     -24.508
  C      -41.703     301.065     -26.513
  O      -42.649     300.237     -27.173
  C      -42.028     302.540     -26.644
  O      -43.436     302.746     -26.412
  C      -41.185     303.138     -25.491
  N      -39.884     303.635     -25.937
  C      -39.755     305.024     -26.070
  O      -40.706     305.769     -25.826
  N      -38.562     305.537     -26.522
  C      -37.591     304.737     -26.830
  N      -36.445     305.295     -27.315
  C      -37.675     303.272     -26.682
  C      -38.838     302.793     -26.240
  O      -37.687     297.939     -25.254
  O      -39.795     297.232     -23.926
  H      -43.646     302.330     -25.556
  H      -39.308     297.516     -23.113
  H      -36.837     302.647     -26.957
  H      -38.985     301.724     -26.126
  H      -41.725     303.954     -24.996
  H      -41.803     302.952     -27.632
  H      -40.696     300.890     -26.908
  H      -42.749     300.977     -24.601
  H      -36.439     306.298     -27.438
  H      -41.102     299.616     -23.369
  H      -35.763     304.742     -27.826
  H      -41.691     298.785     -24.832
  P      -42.232     299.600     -28.591
  C      -43.549     301.275     -30.096
  O      -43.422     299.948     -29.613
  O      -42.397     298.029     -28.335
  O      -40.868     299.962     -29.090
  H      -41.550     297.623     -28.067
  H      -44.385     301.334     -30.761
  H      -42.657     301.551     -30.619
  H      -43.700     301.941     -29.273

 6  7  8  9  10  11  12  13  14  15  16  26  30  31  32  33  35 0
 6-311+G(2d,p)
 ****
 37  38 0
 6-311+G(2d,p)
 ****
 1  2  3  4  5  17  18  19  20  21  22  23  24  25 0
 3-21G
 ****
 27  28  29  34  36  39  40  41  42  43  44  45  46 0
 3-21G
 ****


