%nproc=1
%NoSave
%Mem=1900MB
#P OB98/GEN NMR

erre ene a

0 1
  C      450.554     226.849     262.234
  O      450.100     225.792     261.403
  H      451.609     227.041     262.008
  H      450.473     226.563     263.286
  H      449.982     227.762     262.053
  P      448.547     225.408     261.420
  C      446.872     224.471     263.145
  O      448.212     224.868     262.891
  C      446.865     223.111     263.870
  O      447.521     223.221     265.136
  C      445.461     222.571     264.141
  O      444.879     222.050     262.972
  C      445.766     221.549     265.225
  O      446.250     220.324     264.650
  C      446.890     222.260     266.029
  N      446.394     222.904     267.246
  C      446.605     222.223     268.442
  O      447.159     221.117     268.502
  N      446.150     222.843     269.582
  C      445.405     223.990     269.619
  O      444.934     224.457     270.650
  C      445.180     224.651     268.324
  C      445.670     224.085     267.219
  O      448.086     224.525     260.306
  O      447.809     226.831     261.382
  H      446.230     219.659     265.367
  H      447.437     226.984     260.494
  H      446.284     222.358     270.445
  H      444.599     225.568     268.312
  H      445.518     224.563     266.247
  H      447.667     221.542     266.313
  H      444.886     221.296     265.818
  H      444.842     223.362     264.575
  H      447.430     222.404     263.246
  H      446.349     224.384     262.195
  H      446.381     225.233     263.766
  P      443.516     221.209     263.070
  C      442.704     219.181     264.436
  O      443.832     219.868     263.902
  O      442.774     221.002     261.771
  O      442.626     222.055     264.098
  H      441.794     222.342     263.655
  H      443.034     218.311     264.965
  H      442.054     218.888     263.638
  H      442.177     219.828     265.106

 6  7  8  9  10  11  12  13  14  15  16  26  31  32  33  34  35 0
 6-311+G(2d,p)
 ****
 36  37 0
 6-311+G(2d,p)
 ****
 1  2  3  4  5  17  18  19  20  21  22  23  24  25 0
 3-21G
 ****
 27  28  29  30  38  39  40  41  42  43  44  45 0
 3-21G
 ****


