%nproc=1
%NoSave
%Mem=1900MB
#P OB98/GEN NMR

erre ene a

0 1
  C     -606.380     141.701    -171.660
  O     -607.655     141.236    -171.254
  H     -605.799     140.849    -172.026
  H     -605.854     142.148    -170.810
  H     -606.486     142.431    -172.465
  P     -608.676     142.345    -170.702
  C     -609.364     142.634    -173.181
  O     -608.970     143.276    -171.972
  C     -610.010     143.639    -174.132
  O     -610.152     143.078    -175.448
  C     -611.409     144.084    -173.717
  O     -611.349     145.088    -172.726
  C     -611.935     144.627    -175.038
  O     -611.419     145.956    -175.256
  C     -611.328     143.659    -176.070
  N     -614.645     142.100    -179.664
  C     -614.067     143.292    -179.439
  N     -613.226     143.651    -178.436
  C     -613.004     142.615    -177.615
  C     -613.526     141.333    -177.722
  C     -614.374     141.085    -178.811
  N     -614.963     139.856    -179.038
  N     -613.073     140.532    -176.692
  C     -612.249     141.302    -176.008
  N     -612.199     142.584    -176.507
  O     -608.263     143.040    -169.452
  O     -610.023     141.487    -170.589
  H     -611.715     146.510    -174.505
  H     -610.101     140.867    -171.335
  H     -614.301     144.076    -180.156
  H     -611.653     140.979    -175.163
  H     -611.000     144.183    -176.976
  H     -613.027     144.702    -175.051
  H     -612.026     143.230    -173.415
  H     -609.339     144.506    -174.215
  H     -610.062     141.817    -172.969
  H     -615.688     139.811    -179.740
  H     -614.855     139.143    -178.340
  H     -608.460     142.215    -173.637
  P     -612.663     145.510    -171.899
  C     -613.165     143.138    -171.037
  O     -613.614     144.212    -171.855
  O     -613.330     146.748    -172.386
  O     -612.165     145.646    -170.386
  H     -612.614     146.399    -169.955
  H     -613.871     142.335    -171.084
  H     -613.074     143.474    -170.025
  H     -612.213     142.797    -171.387

 6  7  8  9  10  11  12  13  14  15  25  28  32  33  34  35 0
 6-311+G(2d,p)
 ****
 36  39  40 0
 6-311+G(2d,p)
 ****
 1  2  3  4  5  16  17  18  19  20  21  22  23  24 0
 3-21G
 ****
 26  27  29  30  31  37  38  41  42  43  44  45  46  47 0
 3-21G
 ****
 48 0
 3-21G
 ****


