%nproc=1
%NoSave
%Mem=1900MB
#P OB98/GEN NMR

erre ene a

0 1
  C     -395.150     211.226    -231.906
  O     -395.811     210.069    -232.388
  P     -397.037     209.505    -231.518
  C     -396.258     207.278    -230.427
  O     -396.885     207.914    -231.537
  C     -395.874     205.844    -230.776
  O     -397.057     205.085    -231.088
  C     -394.967     205.713    -231.986
  O     -393.635     206.041    -231.649
  C     -395.174     204.252    -232.365
  O     -394.278     203.402    -231.625
  C     -396.646     204.005    -231.953
  N     -397.526     203.864    -233.099
  C     -397.781     202.549    -233.516
  O     -397.249     201.602    -232.934
  N     -398.598     202.354    -234.607
  C     -399.105     203.372    -235.220
  N     -399.909     203.117    -236.294
  C     -398.848     204.774    -234.827
  C     -398.052     204.941    -233.766
  O     -398.305     209.778    -232.453
  O     -397.186     210.132    -230.168
  H     -393.375     203.665    -231.912
  H     -399.115     209.867    -231.928
  H     -399.297     205.585    -235.372
  H     -397.810     205.937    -233.407
  H     -396.717     203.082    -231.352
  H     -394.981     204.075    -233.426
  H     -395.326     206.361    -232.800
  H     -395.405     205.385    -229.885
  H     -400.063     202.146    -236.545
  H     -396.940     207.271    -229.577
  H     -400.373     203.847    -236.822
  H     -395.366     207.861    -230.147
  P     -393.074     207.465    -232.119
  C     -391.138     206.684    -233.603
  O     -391.511     207.234    -232.356
  O     -393.078     208.305    -230.748
  O     -393.818     208.164    -233.203
  H     -392.854     209.235    -230.924
  H     -390.047     206.718    -233.704
  H     -391.583     207.250    -234.425
  H     -391.462     205.636    -233.660
  H     -394.360     211.491    -232.577
  H     -394.743     211.027    -230.937
  H     -395.848     212.034    -231.840

 3  4  5  6  7  8  9  10  11  12  13  21  23  27  28  29  30  32 0
 6-311+G(2d,p)
 ****
 34  35 0
 6-311+G(2d,p)
 ****
 1  2  14  15  16  17  18  19  20  22  24  25  26 0
 3-21G
 ****
 31  33  36  37  38  39  40  41  42  43  44  45  46 0
 3-21G
 ****


