%nproc=1
%NoSave
%Mem=1900MB
#P OB98/GEN NMR

erre ene a

0 1
  C      233.037     569.886     252.781
  O      231.638     570.047     252.999
  P      230.992     570.913     254.177
  C      229.585     572.442     252.573
  O      229.605     571.510     253.655
  C      228.200     572.577     251.924
  O      228.006     571.505     250.966
  C      227.101     572.432     252.978
  O      226.715     573.544     253.767
  C      225.941     571.763     252.230
  O      225.002     572.709     251.727
  C      226.641     571.033     251.088
  N      223.995     566.681     250.618
  C      223.576     567.980     250.395
  N      222.283     568.152     250.056
  N      224.365     569.014     250.521
  C      225.614     568.713     250.941
  C      226.128     567.466     251.221
  C      225.271     566.313     251.024
  O      225.582     565.145     251.198
  N      227.426     567.546     251.656
  C      227.684     568.837     251.681
  N      226.612     569.583     251.242
  O      231.926     571.846     254.867
  O      230.541     569.794     255.248
  H      225.471     573.303     251.111
  H      230.638     570.200     256.137
  H      223.354     565.919     250.486
  H      228.624     569.283     251.987
  H      226.156     571.247     250.126
  H      225.380     571.103     252.908
  H      221.600     567.410     250.061
  H      227.450     571.684     253.707
  H      221.930     569.109     250.108
  H      228.127     573.506     251.354
  H      230.317     572.083     251.839
  H      229.933     573.418     252.910
  P      225.701     573.520     255.000
  C      227.393     574.611     256.577
  O      226.109     574.700     256.004
  O      226.118     572.211     255.826
  O      224.248     573.482     254.634
  H      225.407     571.955     256.452
  H      227.451     575.269     257.446
  H      228.144     574.929     255.845
  H      227.618     573.591     256.899
  H      233.195     569.259     251.928
  H      233.483     569.435     253.643
  H      233.483     570.843     252.608

 3  4  5  6  7  8  9  10  11  12  23  26  30  31 0
 6-311+G(2d,p)
 ****
 33  35  36  37  38 0
 6-311+G(2d,p)
 ****
 1  2  13  14  15  16  17  18  19  20  21  22  24  25 0
 3-21G
 ****
 27  28  29  32  34  39  40  41  42  43  44  45  46  47  48  49 0
 3-21G
 ****


