%nproc=1
%NoSave
%Mem=1900MB
#P OB98/GEN NMR

erre ene a

0 1
  C      448.142     145.653    -294.375
  O      448.110     145.946    -295.758
  H      448.237     146.591    -293.823
  H      449.000     145.019    -294.138
  H      447.217     145.161    -294.068
  P      448.017     144.729    -296.796
  C      449.775     145.772    -298.374
  O      448.433     145.328    -298.226
  C      449.945     146.500    -299.707
  O      451.247     147.111    -299.783
  C      449.816     145.603    -300.934
  O      448.451     145.382    -301.256
  C      450.528     146.452    -301.973
  O      449.662     147.521    -302.402
  C      451.705     147.024    -301.161
  N      455.582     145.401    -304.013
  C      454.448     146.107    -304.375
  N      454.317     146.399    -305.689
  N      453.524     146.487    -303.528
  C      453.754     146.069    -302.262
  C      454.828     145.347    -301.786
  C      455.873     144.994    -302.720
  O      456.907     144.387    -302.438
  N      454.669     145.027    -300.464
  C      453.528     145.598    -300.125
  N      452.925     146.236    -301.188
  O      446.724     143.973    -296.805
  O      449.260     143.793    -296.417
  H      450.166     148.061    -303.038
  H      449.001     143.107    -295.773
  H      456.252     145.130    -304.711
  H      453.094     145.582    -299.134
  H      451.975     148.037    -301.482
  H      450.809     145.885    -302.867
  H      454.909     146.007    -306.403
  H      450.363     144.663    -300.806
  H      453.464     146.864    -305.979
  H      449.209     147.315    -299.740
  H      450.418     144.890    -298.339
  H      450.051     146.443    -297.553
  P      447.808     143.910    -301.218
  C      449.865     142.746    -302.271
  O      448.504     143.113    -302.426
  O      446.323     143.876    -301.228
  O      448.471     143.219    -299.942
  H      447.993     143.427    -299.098
  H      450.196     142.225    -303.145
  H      449.968     142.110    -301.417
  H      450.458     143.626    -302.134

 6  7  8  9  10  11  12  13  14  15  26  29  33  34 0
 6-311+G(2d,p)
 ****
 36  38  39  40  41 0
 6-311+G(2d,p)
 ****
 1  2  3  4  5  16  17  18  19  20  21  22  23  24  25 0
 3-21G
 ****
 27  28  30  31  32  35  37  42  43  44  45  46  47 0
 3-21G
 ****
 48  49 0
 3-21G
 ****


