%nproc=1
%NoSave
%Mem=1900MB
#P OB98/GEN NMR

erre ene a

0 1
  C       42.321     223.283    -214.164
  O       43.377     222.355    -213.937
  P       43.749     221.970    -212.427
  C       44.873     219.827    -211.359
  O       44.788     220.758    -212.414
  C       45.693     218.602    -211.824
  O       44.972     217.876    -212.848
  C       47.049     218.986    -212.415
  O       48.046     219.108    -211.421
  C       47.299     217.838    -213.382
  O       47.741     216.672    -212.675
  C       45.878     217.611    -213.959
  N       45.452     218.439    -215.110
  C       46.000     218.200    -216.372
  O       46.833     217.331    -216.612
  N       45.539     218.997    -217.389
  C       44.495     219.870    -217.321
  O       44.082     220.517    -218.274
  C       43.853     219.980    -216.000
  C       44.357     219.282    -214.977
  O       42.402     221.333    -211.852
  O       44.223     223.130    -211.595
  H       47.990     216.001    -213.343
  H       42.046     221.883    -211.132
  H       45.975     218.881    -218.294
  H       42.990     220.628    -215.913
  H       43.891     219.356    -213.999
  H       45.740     216.570    -214.249
  H       48.092     218.086    -214.090
  H       46.965     219.908    -213.004
  H       45.835     217.939    -210.963
  H       43.878     219.502    -211.045
  H       45.346     220.294    -210.492
  P       48.268     220.517    -210.683
  C       49.527     221.218    -208.565
  O       49.419     220.256    -209.589
  O       47.038     221.192    -210.174
  O       49.029     221.405    -211.780
  H       48.394     221.969    -212.280
  H       50.234     220.845    -207.807
  H       48.555     221.392    -208.087
  H       49.911     222.157    -208.973
  H       42.198     223.433    -215.216
  H       42.559     224.216    -213.696
  H       41.413     222.898    -213.750

 3  4  5  6  7  8  9  10  11  12  13  23  28  29  30  31  32 0
 6-311+G(2d,p)
 ****
 33  34 0
 6-311+G(2d,p)
 ****
 1  2  14  15  16  17  18  19  20  21  22  24  25  26  27 0
 3-21G
 ****
 35  36  37  38  39  40  41  42  43  44  45 0
 3-21G
 ****


