%nproc=1
%NoSave
%Mem=1900MB
#P OB98/GEN NMR

erre ene a

0 1
  C      308.752     224.031     -39.095
  O      307.718     224.924     -39.469
  H      309.701     224.413     -39.472
  H      308.574     223.043     -39.527
  H      308.807     223.958     -38.007
  P      306.221     224.476     -39.100
  C      305.513     225.402     -41.437
  O      305.520     224.304     -40.538
  C      305.905     224.938     -42.837
  O      307.249     224.396     -42.835
  C      305.027     223.831     -43.410
  O      303.778     224.293     -43.891
  C      305.927     223.336     -44.529
  O      305.891     224.275     -45.619
  C      307.298     223.338     -43.827
  N      307.621     222.053     -43.188
  C      308.105     221.040     -44.023
  O      308.253     221.237     -45.229
  N      308.387     219.809     -43.479
  C      308.219     219.606     -42.209
  N      308.508     218.374     -41.725
  C      307.718     220.652     -41.291
  C      307.442     221.829     -41.842
  O      305.558     225.823     -38.543
  O      306.094     223.298     -38.195
  H      304.962     224.335     -45.911
  H      304.582     225.695     -38.425
  H      307.573     220.431     -40.240
  H      307.070     222.645     -41.226
  H      308.103     223.584     -44.531
  H      305.618     222.371     -44.932
  H      304.887     223.014     -42.678
  H      305.911     225.822     -43.492
  H      308.792     217.659     -42.396
  H      306.229     226.146     -41.071
  H      308.268     218.075     -40.785
  H      304.515     225.851     -41.471
  P      302.545     223.268     -43.855
  C      301.488     224.651     -45.794
  O      301.807     223.368     -45.274
  O      301.510     223.971     -42.852
  O      302.893     221.871     -43.405
  H      301.015     223.309     -42.331
  H      301.002     224.541     -46.741
  H      302.386     225.219     -45.917
  H      300.835     225.159     -45.115

 6  7  8  9  10  11  12  13  14  15  16  26  30  31  32  33  35 0
 6-311+G(2d,p)
 ****
 37  38 0
 6-311+G(2d,p)
 ****
 1  2  3  4  5  17  18  19  20  21  22  23  24  25 0
 3-21G
 ****
 27  28  29  34  36  39  40  41  42  43  44  45  46 0
 3-21G
 ****


