%nproc=1
%NoSave
%Mem=1900MB
#P OB98/GEN NMR

erre ene a

0 1
  C      510.487    -577.603     629.346
  O      511.235    -578.693     629.891
  P      512.444    -579.261     628.989
  C      514.379    -578.338     630.460
  O      513.702    -578.294     629.209
  C      515.799    -577.800     630.325
  O      515.795    -576.379     630.094
  C      516.669    -577.999     631.559
  O      517.179    -579.318     631.634
  C      517.787    -577.003     631.301
  O      518.767    -577.581     630.420
  C      517.048    -575.852     630.602
  N      519.004    -572.016     633.281
  C      519.636    -572.963     632.494
  N      520.981    -572.849     632.382
  N      519.013    -573.919     631.868
  C      517.670    -573.893     632.049
  C      516.931    -573.011     632.806
  C      517.641    -571.969     633.513
  O      517.134    -571.124     634.256
  N      515.592    -573.297     632.732
  C      515.516    -574.324     631.911
  N      516.755    -574.733     631.485
  O      511.971    -578.909     627.496
  O      512.700    -580.716     629.167
  H      519.320    -576.846     630.084
  H      512.367    -579.541     626.864
  H      519.536    -571.298     633.742
  H      514.600    -574.807     631.599
  H      517.604    -575.469     629.742
  H      518.315    -576.713     632.216
  H      521.521    -572.090     632.771
  H      516.122    -577.725     632.471
  H      521.457    -573.506     631.775
  H      516.265    -578.288     629.456
  H      514.414    -579.368     630.823
  H      513.806    -577.760     631.195
  P      517.438    -579.932     633.096
  C      516.288    -582.247     632.831
  O      516.221    -580.937     633.362
  O      517.136    -578.698     634.064
  O      518.807    -580.492     633.302
  H      517.663    -578.775     634.886
  H      517.287    -582.668     632.965
  H      516.049    -582.220     631.752
  H      515.560    -582.878     633.338
  H      509.718    -577.319     630.034
  H      510.043    -577.903     628.420
  H      511.139    -576.772     629.177

 3  4  5  6  7  8  9  10  11  12  23  26  30  31  33  0
 6-311+G(2d,p)
 ****
 35  36  37  38 0
 6-311+G(2d,p)
 ****
 1  2  13  14  15  16  17  18  19  20  21  22  24  25  27  28  29 0
 3-21G
 ****
 32  34  39  40  41  42  43  44  45  46  47  48  49 0
 3-21G
 ****


