%nproc=1
%NoSave
%Mem=1900MB
#P OB98/GEN NMR

erre ene a

0 1
  C      109.382     -36.879     -21.823
  O      110.156     -36.660     -22.983
  H      108.708     -37.720     -22.007
  H      108.783     -35.996     -21.588
  H      110.027     -37.129     -20.975
  P      111.185     -35.433     -23.001
  C      109.721     -33.879     -24.452
  O      110.311     -34.098     -23.174
  C      109.121     -32.470     -24.521
  O      108.160     -32.347     -23.443
  C      110.180     -31.371     -24.351
  O      110.155     -30.402     -25.396
  C      109.949     -30.880     -22.927
  O      110.352     -29.547     -22.690
  C      108.456     -31.146     -22.707
  N      108.083     -31.297     -21.302
  C      107.131     -30.416     -20.797
  O      106.563     -29.539     -21.444
  N      106.821     -30.579     -19.471
  C      107.359     -31.502     -18.626
  O      107.036     -31.603     -17.449
  C      108.375     -32.388     -19.212
  C      108.687     -32.246     -20.503
  O      112.325     -35.559     -23.954
  O      111.696     -35.333     -21.486
  H      110.180     -29.347     -21.747
  H      112.586     -35.723     -21.416
  H      106.124     -29.954     -19.097
  H      108.831     -33.126     -18.568
  H      109.431     -32.885     -20.969
  H      107.857     -30.336     -23.123
  H      110.530     -31.515     -22.247
  H      111.191     -31.790     -24.421
  H      108.575     -32.365     -25.465
  H      108.940     -34.632     -24.595
  H      110.480     -33.997     -25.232
  P      111.215     -30.320     -26.585
  C      113.015     -28.470     -26.128
  O      112.608     -29.821     -25.977
  O      110.741     -29.647     -27.828
  O      111.490     -31.870     -26.944
  H      111.671     -31.905     -27.905
  H      113.966     -28.329     -25.658
  H      112.293     -27.827     -25.671
  H      113.093     -28.235     -27.169

 6  7  8  9  10  11  12  13  14  15  16  26  31  32  33  34  35 0
 6-311+G(2d,p)
 ****
 36  37 0
 6-311+G(2d,p)
 ****
 1  2  3  4  5  17  18  19  20  21  22  23  24  25 0
 3-21G
 ****
 27  28  29  30  38  39  40  41  42  43  44  45 0
 3-21G
 ****


