%nproc=1
%NoSave
%Mem=1900MB
#P OB98/GEN NMR

erre ene a

0 1
  C       50.149    -490.243     202.187
  O       49.057    -489.639     201.522
  H       50.035    -491.329     202.133
  H       50.169    -489.942     203.240
  H       51.086    -489.960     201.701
  P       49.016    -488.036     201.519
  C       49.630    -488.209     199.023
  O       49.945    -487.616     200.277
  C       50.352    -487.473     197.888
  O       49.785    -486.147     197.765
  C       51.856    -487.316     198.128
  O       52.548    -487.472     196.889
  C       51.993    -485.882     198.608
  O       53.285    -485.341     198.350
  C       50.856    -485.192     197.852
  N       50.421    -480.122     197.465
  C       50.782    -481.068     196.568
  N       50.856    -482.405     196.754
  C       50.465    -482.735     197.999
  C       50.074    -481.883     199.014
  C       50.068    -480.508     198.710
  N       49.730    -479.536     199.617
  N       49.788    -482.598     200.163
  C       49.985    -483.864     199.837
  N       50.412    -483.993     198.543
  O       49.347    -487.378     202.817
  O       47.545    -487.749     200.961
  H       53.434    -485.344     197.382
  H       47.331    -488.326     200.205
  H       51.051    -480.710     195.580
  H       49.850    -484.713     200.501
  H       51.147    -484.895     196.837
  H       51.818    -485.837     199.692
  H       52.240    -488.028     198.859
  H       50.152    -487.996     196.945
  H       48.548    -488.170     198.848
  H       49.739    -478.574     199.314
  H       49.444    -479.806     200.552
  H       49.942    -489.257     199.053
  P       53.531    -488.727     196.717
  C       52.702    -489.865     194.553
  O       52.732    -489.907     195.977
  O       54.290    -489.134     197.938
  O       54.531    -488.224     195.569
  H       55.432    -488.550     195.763
  H       52.143    -490.699     194.183
  H       53.702    -489.909     194.174
  H       52.239    -488.955     194.233

 6  7  8  9  10  11  12  13  14  15  25  28  32  33  34  35 0
 6-311+G(2d,p)
 ****
 36  39  40 0
 6-311+G(2d,p)
 ****
 1  2  3  4  5  16  17  18  19  20  21  22  23  24 0
 3-21G
 ****
 26  27  29  30  31  37  38  41  42  43  44  45  46  47 0
 3-21G
 ****
 48 0
 3-21G
 ****


