%nproc=1
%NoSave
%Mem=1900MB
#P OB98/GEN NMR

erre ene a

0 1
  C     -241.224     576.245     116.550
  O     -239.899     575.789     116.674
  P     -238.712     576.843     116.952
  C     -237.139     574.805     117.061
  O     -237.314     576.122     116.574
  C     -235.724     574.312     116.750
  O     -234.738     575.199     117.316
  C     -235.406     572.928     117.329
  O     -236.016     571.916     116.546
  C     -233.881     572.930     117.282
  O     -233.408     572.606     115.960
  C     -233.573     574.406     117.614
  N     -229.915     573.529     121.072
  C     -230.104     573.065     119.806
  N     -231.117     573.314     118.962
  C     -232.029     574.125     119.551
  C     -231.990     574.628     120.840
  C     -230.858     574.334     121.619
  N     -230.646     574.847     122.874
  N     -233.148     575.374     121.086
  C     -233.838     575.310     119.977
  N     -233.189     574.615     119.003
  O     -238.750     577.485     118.302
  O     -238.890     577.930     115.788
  H     -232.448     572.485     116.037
  H     -239.056     578.804     116.193
  H     -229.310     572.428     119.429
  H     -234.821     575.761     119.821
  H     -232.748     574.794     116.984
  H     -233.447     572.232     117.985
  H     -235.744     572.882     118.374
  H     -235.596     574.308     115.659
  H     -237.861     574.143     116.593
  H     -229.727     574.680     123.269
  H     -231.167     575.661     123.161
  H     -237.307     574.794     118.165
  P     -237.061     570.892     117.256
  C     -237.567     569.932     114.922
  O     -237.218     569.640     116.254
  O     -238.342     571.508     117.730
  O     -236.203     570.291     118.479
  H     -236.813     570.080     119.205
  H     -238.648     570.149     114.875
  H     -237.352     569.071     114.309
  H     -237.005     570.807     114.547
  H     -241.872     575.413     116.369
  H     -241.290     576.933     115.733
  H     -241.518     576.736     117.454

 3  4  5  6  7  8  9  10  11  12  22  25  29  30  31  32 0
 6-311+G(2d,p)
 ****
 33  36  37 0
 6-311+G(2d,p)
 ****
 1  2  13  14  15  16  17  18  19  20  21  23  24  26 0
 3-21G
 ****
 27  28  34  35  38  39  40  41  42  43  44  45  46  47  48 0
 3-21G
 ****


