%nproc=1
%NoSave
%Mem=1900MB
#P OB98/GEN NMR

erre ene a

0 1
  C     -140.216    -720.228     570.143
  O     -140.294    -718.831     570.461
  P     -140.967    -718.457     571.867
  C     -138.612    -717.954     572.912
  O     -139.855    -718.671     573.005
  C     -137.800    -718.105     574.196
  O     -137.484    -719.482     574.452
  C     -136.455    -717.400     574.161
  O     -136.575    -715.997     574.423
  C     -135.718    -718.078     575.303
  O     -136.106    -717.481     576.543
  C     -136.250    -719.523     575.214
  N     -132.521    -722.879     575.931
  C     -133.237    -722.147     576.849
  N     -132.925    -722.355     578.161
  N     -134.161    -721.296     576.535
  C     -134.389    -721.208     575.181
  C     -133.713    -721.874     574.171
  C     -132.691    -722.806     574.537
  O     -131.993    -723.466     573.756
  N     -134.246    -721.536     572.933
  C     -135.198    -720.687     573.200
  N     -135.311    -720.441     574.562
  O     -141.999    -719.659     572.128
  O     -141.652    -717.130     571.868
  H     -135.862    -716.535     576.507
  H     -142.735    -719.372     572.694
  H     -131.791    -723.539     576.235
  H     -135.835    -720.224     572.473
  H     -136.487    -719.934     576.209
  H     -134.632    -717.987     575.226
  H     -132.279    -723.038     578.489
  H     -135.923    -717.574     573.198
  H     -133.472    -721.833     578.855
  H     -138.394    -717.728     575.030
  H     -138.820    -716.886     572.729
  H     -138.053    -718.323     572.035
  P     -136.397    -714.985     573.162
  C     -138.956    -714.480     573.155
  O     -137.827    -714.940     572.429
  O     -135.454    -715.837     572.154
  O     -135.795    -713.661     573.508
  H     -134.915    -715.251     571.625
  H     -138.723    -713.613     573.770
  H     -139.320    -715.312     573.818
  H     -139.751    -714.245     572.460
  H     -139.751    -720.351     569.187
  H     -141.202    -720.643     570.116
  H     -139.637    -720.732     570.889

 3  4  5  6  7  8  9  10  11  12  23  26  30  31  33  0
 6-311+G(2d,p)
 ****
 35  36  37  38 0
 6-311+G(2d,p)
 ****
 1  2  13  14  15  16  17  18  19  20  21  22  24  25  27  28  29 0
 3-21G
 ****
 32  34  39  40  41  42  43  44  45  46  47  48  49 0
 3-21G
 ****


