%nproc=1
%NoSave
%Mem=1900MB
#P OB98/GEN NMR

erre ene a

0 1
  C      345.344    -352.483     325.246
  O      345.090    -351.203     325.794
  P      343.649    -350.843     326.397
  C      342.779    -349.847     324.174
  O      342.641    -350.892     325.144
  C      341.411    -349.410     323.651
  O      340.749    -350.505     322.983
  C      340.448    -348.950     324.741
  O      340.770    -347.641     325.169
  C      339.108    -349.066     324.013
  O      338.862    -347.913     323.195
  C      339.325    -350.320     323.142
  N      338.682    -351.507     323.702
  C      337.284    -351.550     323.598
  O      336.668    -350.607     323.089
  N      336.624    -352.642     324.122
  C      337.291    -353.575     324.707
  N      336.578    -354.621     325.215
  C      338.759    -353.554     324.863
  C      339.387    -352.499     324.344
  O      343.589    -349.601     327.218
  O      343.256    -352.170     327.211
  H      338.902    -347.141     323.795
  H      343.772    -352.238     328.058
  H      339.273    -354.362     325.371
  H      340.465    -352.402     324.408
  H      338.922    -350.158     322.133
  H      338.267    -349.150     324.710
  H      340.469    -349.652     325.582
  H      341.568    -348.607     322.917
  H      335.569    -354.582     325.111
  H      343.379    -350.225     323.343
  H      336.997    -355.393     325.726
  H      343.309    -349.007     324.628
  P      340.773    -347.289     326.731
  C      338.324    -346.626     327.126
  O      339.307    -347.620     327.304
  O      341.310    -345.937     327.087
  O      341.682    -348.447     327.376
  H      342.289    -348.048     328.022
  H      337.331    -347.082     327.245
  H      338.390    -346.178     326.132
  H      338.444    -345.846     327.883
  H      346.355    -352.528     324.898
  H      344.677    -352.659     324.428
  H      345.192    -353.229     325.997

 3  4  5  6  7  8  9  10  11  12  13  23  27  28  29  30  32 0
 6-311+G(2d,p)
 ****
 34  35 0
 6-311+G(2d,p)
 ****
 1  2  14  15  16  17  18  19  20  21  22  24  25  26 0
 3-21G
 ****
 31  33  36  37  38  39  40  41  42  43  44  45  46 0
 3-21G
 ****


