%nproc=1
%NoSave
%Mem=1900MB
#P OB98/GEN NMR

erre ene a

0 1
  C      190.616     -78.806    -899.450
  O      190.363     -79.128    -898.090
  P      191.627     -79.139    -897.100
  C      192.627     -81.394    -897.920
  O      191.979     -80.688    -896.860
  C      192.731     -82.881    -897.560
  O      193.721     -83.075    -896.540
  C      191.443     -83.472    -897.010
  O      190.526     -83.729    -898.050
  C      191.975     -84.733    -896.320
  O      192.062     -85.822    -897.250
  C      193.374     -84.298    -895.850
  N      193.443     -84.127    -894.410
  C      193.352     -85.310    -893.650
  O      193.205     -86.395    -894.210
  N      193.404     -85.213    -892.280
  C      193.521     -84.051    -891.720
  N      193.558     -84.011    -890.370
  C      193.599     -82.785    -892.480
  C      193.551     -82.903    -893.800
  O      190.989     -78.685    -895.700
  O      192.757     -78.266    -897.520
  H      192.308     -86.614    -896.720
  H      191.658     -78.261    -895.130
  H      193.689     -81.843    -891.960
  H      193.607     -82.016    -894.450
  H      194.129     -85.038    -896.140
  H      191.317     -85.062    -895.520
  H      191.002     -82.809    -896.260
  H      193.049     -83.421    -898.470
  H      193.494     -84.892    -889.870
  H      193.636     -81.000    -898.060
  H      193.678     -83.164    -889.820
  H      192.061     -81.246    -898.840
  P      188.971     -83.468    -897.750
  C      189.012     -85.394    -896.040
  O      188.426     -84.890    -897.230
  O      188.346     -83.401    -899.230
  O      188.628     -82.279    -896.930
  H      187.405     -83.152    -899.180
  H      188.431     -86.262    -895.710
  H      188.973     -84.639    -895.240
  H      190.041     -85.688    -896.240
  H      189.698     -78.833    -900.000
  H      191.301     -79.517    -899.864
  H      191.040     -77.825    -899.512

 3  4  5  6  7  8  9  10  11  12  13  21  23  27  28  29  30  32 0
 6-311+G(2d,p)
 ****
 34  35 0
 6-311+G(2d,p)
 ****
 1  2  14  15  16  17  18  19  20  22  24  25  26 0
 3-21G
 ****
 31  33  36  37  38  39  40  41  42  43  44  45  46 0
 3-21G
 ****


