%nproc=1
%NoSave
%Mem=1900MB
#P OB98/GEN NMR

erre ene a

0 1
  C      164.539     983.117    -990.177
  O      163.267     983.774    -990.141
  P      163.127     984.980    -989.096
  C      162.010     986.219    -991.100
  O      162.077     986.044    -989.687
  C      161.133     987.427    -991.455
  O      159.733     987.153    -991.280
  C      161.434     988.660    -990.625
  O      162.590     989.316    -991.132
  C      160.146     989.480    -990.823
  O      160.194     990.247    -992.042
  C      159.090     988.377    -990.895
  N      154.421     987.734    -988.975
  C      154.799     988.066    -990.258
  N      153.819     988.177    -991.139
  N      156.066     988.209    -990.616
  C      156.926     988.027    -989.606
  C      156.681     987.697    -988.285
  C      155.293     987.530    -987.892
  O      154.892     987.235    -986.772
  N      157.844     987.557    -987.562
  C      158.780     987.936    -988.413
  N      158.297     988.166    -989.686
  O      164.546     985.752    -989.234
  O      162.892     984.555    -987.688
  H      160.467     989.657    -992.766
  H      165.076     985.624    -988.427
  H      153.450     987.641    -988.729
  H      159.827     988.004    -988.165
  H      158.329     988.591    -991.684
  H      160.010     990.196    -990.016
  H      152.842     988.086    -990.944
  H      161.551     988.385    -989.577
  H      154.075     988.414    -992.124
  H      161.308     987.640    -992.529
  H      161.620     985.319    -991.587
  H      163.040     986.355    -991.471
  P      163.936     989.201    -990.284
  C      165.845     989.382    -992.047
  O      165.078     990.030    -991.051
  O      164.383     987.657    -990.521
  O      163.797     989.478    -988.834
  H      164.675     987.263    -989.654
  H      166.132     990.128    -992.807
  H      165.255     988.611    -992.552
  H      166.737     988.963    -991.594
  H      164.516     982.334    -990.906
  H      164.753     982.702    -989.215
  H      165.299     983.824    -990.437

 3  4  5  6  7  8  9  10  11  12  23  26  30  31 0
 6-311+G(2d,p)
 ****
 33  35  36  37  38 0
 6-311+G(2d,p)
 ****
 1  2  13  14  15  16  17  18  19  20  21  22  24  25 0
 3-21G
 ****
 27  28  29  32  34  39  40  41  42  43  44  45  46  47  48  49 0
 3-21G
 ****


