%nproc=1
%NoSave
%Mem=1900MB
#P OB98/GEN NMR

erre ene a

0 1
  C      -30.077      42.011     -55.254
  O      -29.049      42.851     -55.737
  H      -30.236      41.203     -55.972
  H      -31.007      42.574     -55.143
  H      -29.787      41.579     -54.292
  P      -28.739      44.171     -54.874
  C      -30.400      46.065     -54.202
  O      -29.993      45.127     -55.185
  C      -30.858      47.357     -54.871
  O      -29.791      47.924     -55.665
  C      -32.030      47.191     -55.834
  O      -33.281      47.065     -55.180
  C      -31.923      48.495     -56.603
  O      -32.407      49.578     -55.787
  C      -30.396      48.589     -56.808
  N      -29.947      47.972     -58.059
  C      -30.076      48.742     -59.220
  O      -30.547      49.876     -59.173
  N      -29.699      48.192     -60.422
  C      -29.216      46.990     -60.461
  N      -28.862      46.500     -61.680
  C      -29.051      46.149     -59.263
  C      -29.430      46.695     -58.110
  O      -27.553      44.874     -55.686
  O      -28.456      43.956     -53.426
  H      -32.337      50.386     -56.327
  H      -27.382      45.776     -55.319
  H      -28.654      45.147     -59.346
  H      -29.338      46.137     -57.185
  H      -30.061      49.633     -56.795
  H      -32.507      48.506     -57.522
  H      -31.866      46.358     -56.527
  H      -31.094      48.078     -54.079
  H      -29.044      47.078     -62.490
  H      -29.548      46.264     -53.543
  H      -28.620      45.530     -61.833
  H      -31.222      45.655     -53.608
  P      -34.249      45.879     -55.666
  C      -35.825      45.505     -57.704
  O      -35.041      46.420     -56.949
  O      -35.370      45.835     -54.529
  O      -33.578      44.552     -55.842
  H      -35.681      44.922     -54.379
  H      -36.286      46.020     -58.521
  H      -36.582      45.082     -57.077
  H      -35.198      44.725     -58.082

 6  7  8  9  10  11  12  13  14  15  16  26  30  31  32  33  35 0
 6-311+G(2d,p)
 ****
 37  38 0
 6-311+G(2d,p)
 ****
 1  2  3  4  5  17  18  19  20  21  22  23  24  25 0
 3-21G
 ****
 27  28  29  34  36  39  40  41  42  43  44  45  46 0
 3-21G
 ****


