%nproc=1
%NoSave
%Mem=1900MB
#P OB98/GEN NMR

erre ene a

0 1
  C     -215.549    -890.480    -114.137
  O     -215.202    -891.440    -115.111
  H     -215.802    -889.540    -114.655
  H     -214.711    -890.290    -113.467
  H     -216.426    -890.810    -113.563
  P     -214.718    -892.890    -114.616
  C     -216.654    -894.170    -115.746
  O     -216.042    -893.810    -114.520
  C     -217.650    -895.320    -115.523
  O     -216.930    -896.380    -114.841
  C     -218.841    -894.900    -114.646
  O     -220.098    -895.200    -115.231
  C     -218.518    -895.560    -113.293
  O     -219.646    -895.830    -112.498
  C     -217.693    -896.790    -113.692
  N     -216.801    -897.270    -112.628
  C     -216.502    -898.610    -112.609
  O     -216.905    -899.440    -113.429
  N     -215.671    -899.030    -111.590
  C     -215.146    -898.230    -110.617
  O     -214.410    -898.650    -109.737
  C     -215.515    -896.800    -110.691
  C     -216.319    -896.390    -111.666
  O     -213.855    -892.910    -113.404
  O     -213.953    -893.490    -115.900
  H     -220.273    -895.070    -112.583
  H     -212.988    -893.430    -115.764
  H     -215.445    -900.000    -111.574
  H     -215.142    -896.160    -109.920
  H     -216.631    -895.350    -111.728
  H     -218.346    -897.600    -113.977
  H     -217.883    -894.860    -112.725
  H     -218.861    -893.810    -114.510
  H     -217.984    -895.700    -116.496
  H     -215.870    -894.490    -116.446
  H     -217.186    -893.300    -116.154
  P     -221.333    -894.180    -115.301
  C     -221.719    -894.690    -117.842
  O     -221.508    -893.720    -116.813
  O     -221.352    -893.100    -114.267
  O     -222.625    -895.140    -115.048
  H     -223.276    -894.580    -114.556
  H     -221.813    -894.194    -118.786
  H     -222.614    -895.239    -117.637
  H     -220.887    -895.363    -117.874

 6  7  8  9  10  11  12  13  14  15  16  26  31  32  33  34  35 0
 6-311+G(2d,p)
 ****
 36  37 0
 6-311+G(2d,p)
 ****
 1  2  3  4  5  17  18  19  20  21  22  23  24  25 0
 3-21G
 ****
 27  28  29  30  38  39  40  41  42  43  44  45 0
 3-21G
 ****


