%nproc=1
%NoSave
%Mem=1900MB
#P OB98/GEN NMR

erre ene a

0 1
  C     -101.420     -31.921      71.999
  O     -100.171     -31.300      72.243
  P      -99.144     -31.145      71.025
  C      -98.073     -28.993      72.017
  O      -97.875     -30.321      71.561
  C      -96.756     -28.402      72.525
  O      -96.435     -28.985      73.824
  C      -95.558     -28.660      71.600
  O      -94.688     -27.522      71.693
  C      -94.897     -29.861      72.247
  O      -93.543     -30.031      71.859
  C      -95.098     -29.515      73.726
  N      -94.907     -30.663      74.610
  C      -93.640     -30.846      75.154
  O      -92.683     -30.106      74.934
  N      -93.480     -31.965      75.927
  C      -94.410     -32.941      76.131
  O      -94.166     -33.977      76.739
  C      -95.730     -32.694      75.532
  C      -95.916     -31.585      74.812
  O      -99.883     -30.112      70.052
  O      -98.802     -32.420      70.331
  H      -93.530     -30.173      70.895
  H     -100.313     -30.586      69.315
  H      -92.571     -32.108      76.339
  H      -96.499     -33.438      75.692
  H      -96.874     -31.388      74.342
  H      -94.413     -28.710      74.022
  H      -95.443     -30.770      71.971
  H      -95.839     -28.840      70.558
  H      -96.894     -27.324      72.679
  H      -98.801     -28.998      72.830
  H      -98.483     -28.383      71.205
  P      -93.613     -27.300      70.520
  C      -93.869     -24.712      70.270
  O      -93.069     -25.803      70.672
  O      -94.577     -27.233      69.242
  O      -92.584     -28.379      70.437
  H      -95.372     -26.699      69.401
  H      -94.930     -24.904      70.446
  H      -93.709     -24.519      69.206
  H      -93.572     -23.827      70.838
  H     -101.988     -31.948      72.905
  H     -101.260     -32.919      71.648
  H     -101.956     -31.365      71.259

 3  4  5  6  7  8  9  10  11  12  13  23  28  29  30  31  32 0
 6-311+G(2d,p)
 ****
 33  34 0
 6-311+G(2d,p)
 ****
 1  2  14  15  16  17  18  19  20  21  22  24  25  26 0
 3-21G
 ****
 27  35  36  37  38  39  40  41  42  43  44  45 0
 3-21G
 ****


