%nproc=1
%NoSave
%Mem=1900MB
#P OB98/GEN NMR

erre ene a

0 1
  C      225.612    -200.961     199.978
  O      226.017    -200.919     201.332
  H      224.918    -200.135     199.794
  H      225.104    -201.905     199.764
  H      226.478    -200.845     199.321
  P      227.000    -202.095     201.816
  C      226.959    -204.682     201.637
  O      226.216    -203.473     201.552
  C      226.131    -205.856     201.121
  O      225.349    -205.463     199.971
  C      226.953    -207.069     200.701
  O      227.275    -207.877     201.821
  C      225.995    -207.754     199.736
  O      224.997    -208.517     200.450
  C      225.353    -206.558     199.018
  N      227.506    -208.195     194.749
  C      226.982    -208.904     195.814
  N      227.071    -210.250     195.747
  N      226.433    -208.344     196.859
  C      226.468    -206.989     196.821
  C      226.958    -206.175     195.826
  C      227.510    -206.808     194.649
  O      227.915    -206.236     193.638
  N      226.790    -204.850     196.145
  C      226.232    -204.868     197.342
  N      226.023    -206.145     197.799
  O      226.982    -201.962     203.412
  O      228.390    -202.026     201.285
  H      224.485    -207.917     201.020
  H      227.880    -202.149     203.752
  H      227.888    -208.678     193.956
  H      225.959    -203.990     197.914
  H      224.312    -206.759     198.748
  H      226.514    -208.463     199.088
  H      227.724    -210.716     195.132
  H      227.858    -206.764     200.159
  H      226.754    -210.766     196.561
  H      225.419    -206.129     201.915
  H      227.227    -204.858     202.684
  H      227.874    -204.583     201.043
  P      228.562    -208.825     201.726
  C      228.892    -211.384     201.411
  O      228.094    -210.241     201.129
  O      228.881    -209.151     203.262
  O      229.744    -208.206     201.057
  H      229.662    -208.643     203.552
  H      228.456    -212.246     200.950
  H      228.941    -211.532     202.470
  H      229.879    -211.234     201.026

 6  7  8  9  10  11  12  13  14  15  26  29  33  34 0
 6-311+G(2d,p)
 ****
 36  38  39  40  41 0
 6-311+G(2d,p)
 ****
 1  2  3  4  5  16  17  18  19  20  21  22  23  24  25 0
 3-21G
 ****
 27  28  30  31  32  35  37  42  43  44  45  46  47 0
 3-21G
 ****
 48  49 0
 3-21G
 ****


