%nproc=1
%NoSave
%Mem=1900MB
#P OB98/GEN NMR

erre ene a

0 1
  C      113.932      15.710     -19.681
  O      115.073      16.357     -19.090
  P      116.513      16.188     -19.783
  C      117.977      16.422     -17.627
  O      117.606      16.952     -18.894
  C      118.896      17.404     -16.898
  O      120.046      17.730     -17.713
  C      118.252      18.744     -16.564
  O      117.381      18.651     -15.449
  C      119.482      19.611     -16.304
  O      119.960      19.431     -14.960
  C      120.491      19.046     -17.323
  N      120.660      19.920     -18.483
  C      121.704      20.842     -18.418
  O      122.416      20.978     -17.427
  N      121.873      21.626     -19.526
  C      121.083      21.627     -20.639
  O      121.277      22.372     -21.594
  C      119.950      20.688     -20.617
  C      119.789      19.894     -19.556
  O      116.387      17.158     -21.057
  O      116.868      14.802     -20.212
  H      119.262      19.781     -14.369
  H      116.970      16.836     -21.771
  H      122.641      22.279     -19.511
  H      119.283      20.674     -21.474
  H      118.961      19.197     -19.527
  H      121.470      18.906     -16.847
  H      119.270      20.676     -16.429
  H      117.725      19.128     -17.444
  H      119.260      16.915     -15.980
  H      118.509      15.475     -17.774
  H      117.073      16.229     -17.042
  P      116.109      19.631     -15.450
  C      116.320      20.002     -12.874
  O      115.531      19.576     -13.959
  O      115.071      18.785     -16.330
  O      116.413      20.991     -15.989
  H      115.180      17.823     -16.203
  H      116.987      20.827     -13.157
  H      116.921      19.165     -12.511
  H      115.664      20.347     -12.067
  H      113.060      15.923     -19.099
  H      114.094      14.653     -19.705
  H      113.793      16.073     -20.678

 3  4  5  6  7  8  9  10  11  12  13  23  28  29  30  31  32 0
 6-311+G(2d,p)
 ****
 33  34 0
 6-311+G(2d,p)
 ****
 1  2  14  15  16  17  18  19  20  21  22  24  25  26 0
 3-21G
 ****
 27  35  36  37  38  39  40  41  42  43  44  45 0
 3-21G
 ****


