%nproc=1
%NoSave
%Mem=1900MB
#P OB98/GEN NMR

erre ene a

0 1
  C      175.905     177.080     150.942
  O      176.876     177.834     151.648
  P      178.392     177.768     151.121
  C      177.917     179.453     149.202
  O      178.347     178.145     149.562
  C      177.748     179.586     147.687
  O      177.150     180.872     147.393
  C      179.057     179.481     146.902
  O      178.782     178.788     145.685
  C      179.393     180.925     146.582
  O      180.226     181.030     145.428
  C      177.990     181.531     146.423
  N      177.989     182.978     146.612
  C      178.040     183.765     145.459
  O      178.163     183.234     144.355
  N      178.005     185.131     145.587
  C      178.027     185.665     146.769
  N      177.987     187.023     146.843
  C      178.097     184.871     148.010
  C      178.054     183.549     147.861
  O      178.699     176.199     151.112
  O      179.371     178.533     151.948
  H      180.990     180.425     145.550
  H      179.641     176.028     151.306
  H      178.150     185.367     148.969
  H      178.076     182.888     148.717
  H      177.583     181.310     145.428
  H      179.916     181.384     147.429
  H      179.844     178.961     147.454
  H      177.043     178.816     147.354
  H      177.954     187.545     145.978
  H      178.670     180.176     149.527
  H      178.002     187.526     147.721
  H      176.979     179.682     149.718
  P      179.710     177.532     145.318
  C      178.185     175.847     146.512
  O      179.454     176.471     146.492
  O      181.165     178.089     145.703
  O      179.683     177.016     143.919
  H      181.842     177.431     145.464
  H      178.194     175.058     147.268
  H      177.961     175.401     145.539
  H      177.415     176.578     146.776
  H      174.947     177.216     151.398
  H      176.169     176.044     150.969
  H      175.866     177.412     149.925

 3  4  5  6  7  8  9  10  11  12  13  21  23  27  28  29  30  32 0
 6-311+G(2d,p)
 ****
 34  35 0
 6-311+G(2d,p)
 ****
 1  2  14  15  16  17  18  19  20  22  24  25  26 0
 3-21G
 ****
 31  33  36  37  38  39  40  41  42  43  44  45  46 0
 3-21G
 ****


