%nproc=1
%NoSave
%Mem=1900MB
#P OB98/GEN NMR

erre ene a

0 1
  C      312.520    -893.130     222.601
  O      313.934    -893.070     222.747
  P      314.926    -892.270     221.787
  C      314.930    -893.980     219.788
  O      314.599    -892.690     220.273
  C      314.355    -894.210     218.382
  O      314.857    -893.150     217.498
  C      314.816    -895.560     217.777
  O      313.772    -896.240     217.077
  C      316.043    -895.160     216.970
  O      316.376    -896.100     215.976
  C      315.675    -893.760     216.468
  N      319.068    -892.300     212.954
  C      318.133    -893.310     212.883
  N      318.082    -894.020     211.745
  N      317.296    -893.590     213.863
  C      317.499    -892.830     214.975
  C      318.421    -891.840     215.165
  C      319.287    -891.490     214.067
  O      320.137    -890.610     214.067
  N      318.316    -891.300     216.433
  C      317.374    -892.000     217.013
  N      316.825    -892.930     216.157
  O      316.361    -892.260     222.193
  O      314.390    -890.750     221.864
  H      317.210    -895.810     215.540
  H      315.177    -890.180     221.754
  H      319.671    -892.100     212.161
  H      317.011    -891.850     218.028
  H      315.072    -893.810     215.546
  H      316.883    -895.100     217.655
  H      318.775    -893.930     211.013
  H      315.110    -896.260     218.566
  H      317.548    -894.880     211.788
  H      313.282    -894.130     218.417
  H      314.487    -894.690     220.486
  H      316.025    -894.140     219.809
  P      312.390    -896.820     217.673
  C      313.116    -899.240     218.130
  O      312.741    -898.000     218.693
  O      311.727    -897.580     216.447
  O      311.474    -895.770     218.206
  H      310.860    -897.180     216.219
  H      313.075    -900.000     218.894
  H      314.142    -899.180     217.755
  H      312.442    -899.510     217.308
  H      312.106    -893.734     223.381
  H      312.277    -893.558     221.651
  H      312.113    -892.142     222.661

 3  4  5  6  7  8  9  10  11  12  23  26  30  31 0
 6-311+G(2d,p)
 ****
 33  35  36  37  38 0
 6-311+G(2d,p)
 ****
 1  2  13  14  15  16  17  18  19  20  21  22  24  25 0
 3-21G
 ****
 27  28  29  32  34  39  40  41  42  43  44  45  46  47  48  49 0
 3-21G
 ****


