%nproc=1
%NoSave
%Mem=1900MB
#P OB98/GEN NMR

erre ene a

0 1
  C      927.757      43.946     -99.703
  O      928.783      44.783    -100.240
  P      930.278      44.306    -100.526
  C      931.195      45.282     -98.255
  O      931.023      44.157     -99.121
  C      932.014      44.946     -97.014
  O      933.231      44.259     -97.382
  C      932.464      46.251     -96.302
  O      931.572      46.913     -95.424
  C      933.828      45.928     -95.706
  O      933.732      45.505     -94.347
  C      934.348      44.785     -96.593
  N      939.378      44.754     -97.389
  C      938.676      44.293     -96.306
  N      939.397      43.794     -95.267
  N      937.359      44.309     -96.226
  C      936.766      44.923     -97.286
  C      937.363      45.441     -98.413
  C      938.829      45.352     -98.524
  O      939.498      45.723     -99.464
  N      936.433      45.992     -99.277
  C      935.292      45.818     -98.648
  N      935.444      45.186     -97.436
  O      931.004      45.067    -101.596
  O      930.097      42.784    -101.034
  H      932.990      44.836     -94.299
  H      930.831      42.624    -101.687
  H      940.388      44.689     -97.406
  H      934.334      46.150     -99.021
  H      934.696      43.946     -95.985
  H      934.488      46.811     -95.730
  H      940.410      43.835     -95.232
  H      932.661      46.998     -97.090
  H      938.909      43.658     -94.402
  H      931.477      44.281     -96.338
  H      930.186      45.610     -97.982
  H      931.663      46.109     -98.814
  P      930.855      48.326     -95.674
  C      932.096      49.391     -93.683
  O      931.790      49.480     -95.091
  O      929.609      48.308     -94.669
  O      930.402      48.555     -97.095
  H      928.956      48.998     -94.934
  H      932.459      50.358     -93.334
  H      932.868      48.653     -93.535
  H      931.184      49.106     -93.128
  H      926.851      44.508     -99.609
  H      928.056      43.588     -98.740
  H      927.596      43.115    -100.358

 3  4  5  6  7  8  9  10  11  12  23  26  30  31 0
 6-311+G(2d,p)
 ****
 33  35  36  37  38 0
 6-311+G(2d,p)
 ****
 1  2  13  14  15  16  17  18  19  20  21  22  24  25 0
 3-21G
 ****
 27  28  29  32  34  39  40  41  42  43  44  45  46  47  48  49 0
 3-21G
 ****


