%nproc=1
%NoSave
%Mem=1900MB
#P OB98/GEN NMR

erre ene a

0 1
  C      217.276    -241.989    -355.109
  O      217.239    -241.534    -353.751
  P      216.056    -240.539    -353.322
  C      214.363    -242.277    -352.379
  O      215.247    -241.200    -352.104
  C      213.101    -242.169    -351.523
  O      212.100    -243.127    -351.916
  C      213.345    -242.429    -350.041
  O      213.847    -241.274    -349.383
  C      211.936    -242.739    -349.560
  O      211.203    -241.512    -349.367
  C      211.354    -243.522    -350.741
  N      209.963    -247.545    -347.890
  C      209.734    -246.220    -347.751
  N      210.152    -245.210    -348.540
  C      210.868    -245.679    -349.576
  C      211.185    -247.002    -349.845
  C      210.698    -247.964    -348.944
  N      210.933    -249.312    -349.089
  N      211.948    -247.099    -350.992
  C      212.075    -245.859    -351.415
  N      211.449    -244.964    -350.589
  O      215.031    -240.648    -354.546
  O      216.499    -239.131    -353.105
  H      210.286    -241.757    -349.155
  H      214.598    -239.790    -354.693
  H      209.135    -245.931    -346.894
  H      212.607    -245.562    -352.309
  H      210.298    -243.285    -350.924
  H      211.924    -243.268    -348.602
  H      213.992    -243.302    -349.897
  H      212.686    -241.159    -351.652
  H      214.864    -243.234    -352.193
  H      210.528    -249.945    -348.422
  H      211.463    -249.632    -349.891
  H      214.110    -242.267    -353.447
  P      214.949    -241.501    -348.239
  C      216.991    -242.216    -349.677
  O      216.360    -241.193    -348.929
  O      214.944    -243.093    -348.048
  O      214.668    -240.783    -346.963
  H      215.176    -243.320    -347.128
  H      217.757    -241.761    -350.312
  H      216.272    -242.737    -350.316
  H      217.468    -242.929    -349.000
  H      218.114    -242.641    -355.244
  H      217.369    -241.148    -355.764
  H      216.373    -242.518    -355.333

 3  4  5  6  7  8  9  10  11  12  22  25  29  30  31  32 0
 6-311+G(2d,p)
 ****
 33  36  37 0
 6-311+G(2d,p)
 ****
 1  2  13  14  15  16  17  18  19  20  21  23  24  26 0
 3-21G
 ****
 27  28  34  35  38  39  40  41  42  43  44  45  46  47  48 0
 3-21G
 ****


