%nproc=1
%NoSave
%Mem=1900MB
#P OB98/GEN NMR

erre ene a

0 1
  C     -590.983      49.857     184.703
  O     -591.498      50.692     183.680
  P     -590.867      52.142     183.408
  C     -593.117      52.693     182.256
  O     -592.126      53.114     183.181
  C     -594.435      53.412     182.524
  O     -594.879      53.107     183.859
  C     -594.346      54.926     182.456
  O     -594.306      55.379     181.112
  C     -595.594      55.327     183.241
  O     -596.755      55.218     182.417
  C     -595.621      54.250     184.351
  N     -595.077      54.724     185.619
  C     -595.814      54.391     186.769
  O     -596.845      53.727     186.693
  N     -595.336      54.793     187.993
  C     -594.232      55.480     188.066
  N     -593.764      55.789     189.304
  C     -593.460      55.896     186.877
  C     -593.935      55.478     185.698
  O     -589.838      52.188     182.325
  O     -590.318      52.621     184.835
  H     -596.944      54.275     182.306
  H     -589.388      52.335     185.014
  H     -592.561      56.480     186.985
  H     -593.417      55.726     184.781
  H     -596.652      53.901     184.509
  H     -595.555      56.352     183.631
  H     -593.451      55.287     182.982
  H     -595.186      53.040     181.815
  H     -594.224      55.335     190.086
  H     -593.268      51.609     182.368
  H     -592.802      56.057     189.457
  H     -592.762      52.888     181.231
  P     -592.974      56.135     180.625
  C     -594.222      57.150     178.584
  O     -593.476      57.400     179.765
  O     -592.375      55.123     179.522
  O     -591.993      56.436     181.713
  H     -591.630      54.619     179.906
  H     -594.684      58.096     178.266
  H     -595.010      56.423     178.771
  H     -593.556      56.804     177.791
  H     -591.534      48.940     184.726
  H     -591.075      50.352     185.647
  H     -589.952      49.649     184.508

 3  4  5  6  7  8  9  10  11  12  13  23  27  28  29  30  32 0
 6-311+G(2d,p)
 ****
 34  35 0
 6-311+G(2d,p)
 ****
 1  2  14  15  16  17  18  19  20  21  22  24  25  26 0
 3-21G
 ****
 31  33  36  37  38  39  40  41  42  43  44  45  46 0
 3-21G
 ****


