%nproc=1
%NoSave
%Mem=1900MB
#P OB98/GEN NMR

erre ene a

0 1
  C      737.870     395.616     641.379
  O      736.783     396.365     640.868
  H      737.752     394.578     641.065
  H      737.870     395.652     642.471
  H      738.818     395.996     640.993
  P      736.763     397.955     641.102
  C      734.193     398.024     641.068
  O      735.388     398.493     640.467
  C      732.984     398.367     640.202
  O      732.939     399.804     640.009
  C      733.015     397.714     638.814
  O      731.681     397.335     638.464
  C      733.489     398.824     637.905
  O      733.038     398.659     636.562
  C      732.903     400.059     638.591
  N      732.505     405.020     637.730
  C      731.550     404.105     638.116
  N      730.289     404.574     638.270
  N      731.801     402.842     638.327
  C      733.102     402.517     638.146
  C      734.143     403.336     637.769
  C      733.850     404.726     637.521
  O      734.656     405.580     637.167
  N      735.320     402.623     637.665
  C      734.984     401.388     637.986
  N      733.652     401.262     638.272
  O      737.983     398.687     640.648
  O      736.528     398.109     642.676
  H      733.380     399.417     636.046
  H      737.368     398.300     643.132
  H      732.253     405.987     637.570
  H      735.667     400.543     638.011
  H      731.861     400.256     638.302
  H      734.584     398.863     637.896
  H      730.025     405.535     638.142
  H      733.670     396.834     638.769
  H      729.573     403.917     638.574
  H      732.073     398.093     640.745
  H      734.090     398.504     642.049
  H      734.257     396.936     641.210
  P      731.097     395.943     639.009
  C      729.350     395.064     637.330
  O      729.573     395.814     638.522
  O      731.334     395.673     640.457
  O      731.849     394.860     638.087
  H      731.956     394.036     638.600
  H      728.303     395.049     637.109
  H      729.700     394.062     637.468
  H      729.880     395.518     636.519

 6  7  8  9  10  11  12  13  14  15  26  29  33  34 0
 6-311+G(2d,p)
 ****
 36  38  39  40  41 0
 6-311+G(2d,p)
 ****
 1  2  3  4  5  16  17  18  19  20  21  22  23  24  25 0
 3-21G
 ****
 27  28  30  31  32  35  37  42  43  44  45  46  47 0
 3-21G
 ****
 48  49 0
 3-21G
 ****


