%nproc=1
%NoSave
%Mem=1900MB
#P OB98/GEN NMR

erre ene a

0 1
  C       66.452       1.177      73.158
  O       65.118       0.978      73.616
  P       64.894       0.278      75.040
  C       66.031      -1.750      76.302
  O       65.691      -1.103      75.096
  C       65.775      -3.259      76.158
  O       64.365      -3.542      76.282
  C       66.227      -3.822      74.814
  O       67.595      -4.189      74.824
  C       65.286      -4.996      74.633
  O       65.716      -6.110      75.436
  C       63.964      -4.410      75.184
  N       63.106      -3.638      74.260
  C       62.193      -4.302      73.444
  O       62.041      -5.521      73.425
  N       61.426      -3.510      72.631
  C       61.351      -2.149      72.669
  O       60.600      -1.494      71.958
  C       62.224      -1.501      73.652
  C       63.053      -2.256      74.378
  O       63.360      -0.167      75.007
  O       65.197       1.156      76.214
  H       66.588      -6.386      75.103
  H       62.851       0.317      75.683
  H       60.811      -3.977      71.982
  H       62.163      -0.425      73.750
  H       63.705      -1.784      75.109
  H       63.337      -5.205      75.606
  H       65.285      -5.346      73.603
  H       66.024      -3.102      74.015
  H       66.297      -3.778      76.972
  H       65.449      -1.352      77.136
  H       67.085      -1.565      76.534
  P       68.642      -3.390      73.915
  C       69.193      -3.312      71.411
  O       68.408      -3.921      72.418
  O       70.057      -3.394      74.388
  O       68.032      -1.907      73.855
  H       68.454      -1.330      74.532
  H       69.057      -3.865      70.478
  H       70.252      -3.333      71.685
  H       68.869      -2.278      71.261
  H       66.433       1.652      72.199
  H       66.946       0.231      73.078
  H       66.979       1.797      73.853

 3  4  5  6  7  8  9  10  11  12  13  23  28  29  30  31  32 0
 6-311+G(2d,p)
 ****
 33  34 0
 6-311+G(2d,p)
 ****
 1  2  14  15  16  17  18  19  20  21  22  24  25  26  27 0
 3-21G
 ****
 35  36  37  38  39  40  41  42  43  44  45 0
 3-21G
 ****


