%nproc=1
%NoSave
%Mem=1900MB
#P OB98/GEN NMR

erre ene a

0 1
  C     1876.479    2046.282    -884.890
  O     1875.143    2046.008    -884.540
  P     1874.075    2045.875    -885.741
  C     1873.164    2043.876    -884.279
  O     1872.872    2044.988    -885.086
  C     1872.490    2043.996    -882.933
  O     1871.025    2044.037    -883.132
  C     1872.761    2042.855    -882.004
  O     1874.017    2042.937    -881.349
  C     1871.565    2042.934    -881.019
  O     1871.854    2043.890    -879.936
  C     1870.465    2043.544    -881.914
  N     1869.401    2042.557    -882.223
  C     1868.264    2042.630    -881.429
  O     1868.150    2043.511    -880.534
  N     1867.248    2041.758    -881.629
  C     1867.380    2040.828    -882.554
  N     1866.339    2039.962    -882.709
  C     1868.599    2040.691    -883.369
  C     1869.533    2041.586    -883.148
  O     1874.821    2044.790    -886.713
  O     1873.688    2047.134    -886.424
  H     1871.048    2043.942    -879.405
  H     1874.521    2044.909    -887.637
  H     1868.663    2039.897    -884.152
  H     1870.447    2041.566    -883.713
  H     1869.989    2044.398    -881.422
  H     1871.312    2042.011    -880.542
  H     1872.665    2041.855    -882.537
  H     1872.746    2044.944    -882.466
  H     1865.516    2040.055    -882.104
  H     1874.266    2043.909    -884.062
  H     1866.327    2039.207    -883.428
  H     1872.913    2042.945    -884.773
  P     1874.953    2041.655    -881.276
  C     1877.011    2043.107    -881.203
  O     1876.287    2042.147    -880.561
  O     1875.425    2041.455    -882.786
  O     1874.330    2040.375    -880.751
  H     1875.910    2040.627    -882.954
  H     1877.810    2043.524    -880.577
  H     1876.365    2043.986    -881.490
  H     1877.526    2042.745    -882.127
  H     1877.075    2046.344    -884.003
  H     1876.526    2047.212    -885.417
  H     1876.852    2045.498    -885.516

 3  4  5  6  7  8  9  10  11  12  13  21  23  27  28  29  30  32 0
 6-311+G(2d,p)
 ****
 34  35 0
 6-311+G(2d,p)
 ****
 1  2  14  15  16  17  18  19  20  22  24  25  26 0
 3-21G
 ****
 31  33  36  37  38  39  40  41  42  43  44  45  46 0
 3-21G
 ****


