%nproc=1
%NoSave
%Mem=1900MB
#P OB98/GEN NMR

erre ene a

0 1
  C     -239.659    -395.636     434.067
  O     -240.609    -396.300     433.261
  H     -238.735    -396.220     434.073
  H     -240.029    -395.556     435.092
  H     -239.439    -394.638     433.674
  P     -241.959    -395.532     432.862
  C     -242.634    -396.401     430.528
  O     -242.802    -396.535     431.931
  C     -241.745    -397.518     429.978
  O     -242.308    -398.806     430.382
  C     -241.626    -397.531     428.443
  O     -240.320    -398.026     428.114
  C     -242.699    -398.546     428.078
  O     -242.580    -398.974     426.747
  C     -242.463    -399.582     429.176
  N     -243.541    -400.554     429.305
  C     -243.609    -401.565     428.352
  O     -242.797    -401.702     427.438
  N     -244.658    -402.436     428.484
  C     -245.626    -402.389     429.445
  O     -246.535    -403.206     429.528
  C     -245.520    -401.277     430.402
  C     -244.502    -400.424     430.289
  O     -241.784    -394.158     432.310
  O     -242.803    -395.518     434.224
  H     -242.685    -394.660     434.672
  H     -243.306    -399.595     426.520
  H     -244.719    -403.181     427.804
  H     -246.287    -401.193     431.159
  H     -244.392    -399.590     430.974
  H     -241.520    -400.112     429.011
  H     -243.689    -398.096     428.172
  H     -241.769    -396.545     427.993
  H     -240.753    -397.448     430.450
  H     -242.173    -395.429     430.329
  H     -243.616    -396.438     430.043
  P     -239.022    -397.086     428.029
  C     -237.112    -398.371     429.198
  O     -237.704    -398.005     427.958
  O     -238.959    -396.047     429.103
  O     -239.083    -396.398     426.583
  H     -238.733    -395.489     426.644
  H     -236.249    -398.977     429.016
  H     -237.819    -398.922     429.782
  H     -236.822    -397.489     429.729

 6  7  8  9  10  11  12  13  14  15  16  27  31  32  33  34  35 0
 6-311+G(2d,p)
 ****
 36  37 0
 6-311+G(2d,p)
 ****
 1  2  3  4  5  17  18  19  20  21  22  23  24  25 0
 3-21G
 ****
 26  28  29  30  38  39  40  41  42  43  44  45 0
 3-21G
 ****


