%nproc=1
%NoSave
%Mem=1900MB
#P OB98/GEN NMR

erre ene a

0 1
  C     -220.211    -615.841    -367.039
  O     -218.885    -616.174    -367.401
  P     -217.709    -616.137    -366.309
  C     -216.578    -618.390    -366.829
  O     -216.494    -616.979    -366.935
  C     -215.502    -619.051    -367.682
  O     -215.878    -619.074    -369.087
  C     -214.164    -618.325    -367.677
  O     -213.448    -618.292    -366.454
  C     -213.467    -618.958    -368.866
  O     -212.894    -620.222    -368.529
  C     -214.652    -619.147    -369.857
  N     -214.634    -618.147    -370.934
  C     -213.919    -618.525    -372.075
  O     -213.330    -619.611    -372.197
  N     -213.860    -617.587    -373.083
  C     -214.415    -616.344    -373.031
  O     -214.294    -615.534    -373.950
  C     -215.140    -616.003    -371.792
  C     -215.219    -616.916    -370.817
  O     -218.106    -616.567    -364.940
  O     -217.167    -614.630    -366.393
  H     -212.346    -620.092    -367.732
  H     -216.828    -614.373    -367.272
  H     -213.343    -617.837    -373.902
  H     -215.588    -615.024    -371.737
  H     -215.744    -616.694    -369.899
  H     -214.624    -620.151    -370.299
  H     -212.659    -618.328    -369.256
  H     -214.353    -617.268    -367.941
  H     -215.396    -620.097    -367.371
  H     -217.569    -618.716    -367.189
  H     -216.485    -618.690    -365.782
  P     -213.359    -616.990    -365.528
  C     -214.176    -617.887    -363.247
  O     -213.081    -617.457    -364.018
  O     -214.395    -615.925    -365.739
  O     -211.917    -616.394    -365.952
  H     -211.919    -615.425    -365.866
  H     -213.832    -618.127    -362.228
  H     -214.618    -618.787    -363.674
  H     -214.928    -617.104    -363.165
  H     -220.846    -615.924    -367.896
  H     -220.239    -614.837    -366.670
  H     -220.551    -616.510    -366.277

 3  4  5  6  7  8  9  10  11  12  13  23  28  29  30  31  32 0
 6-311+G(2d,p)
 ****
 33  34 0
 6-311+G(2d,p)
 ****
 1  2  14  15  16  17  18  19  20  21  22  24  25  26  27 0
 3-21G
 ****
 35  36  37  38  39  40  41  42  43  44  45 0
 3-21G
 ****


