%nproc=1
%NoSave
%Mem=1900MB
#P OB98/GEN NMR

erre ene a

0 1
  C      132.257     -64.972     -14.346
  O      132.499     -66.363     -14.328
  H      131.742     -64.686     -15.267
  H      131.623     -64.715     -13.492
  H      133.200     -64.425     -14.262
  P      133.329     -66.956     -15.567
  C      132.855     -66.952     -18.114
  O      132.310     -67.024     -16.805
  C      131.774     -66.554     -19.112
  O      131.182     -65.296     -18.732
  C      132.268     -66.351     -20.539
  O      132.449     -67.585     -21.221
  C      131.112     -65.553     -21.126
  O      130.040     -66.446     -21.484
  C      130.685     -64.670     -19.944
  N      129.497     -59.683     -19.659
  C      128.741     -60.798     -19.539
  N      129.121     -62.087     -19.638
  C      130.440     -62.180     -19.871
  C      131.337     -61.134     -20.016
  C      130.817     -59.833     -19.907
  N      131.594     -58.704     -20.046
  N      132.611     -61.610     -20.231
  C      132.490     -62.923     -20.218
  N      131.194     -63.314     -20.011
  O      133.536     -68.498     -15.175
  O      134.632     -66.285     -15.844
  H      129.499     -65.979     -22.149
  H      134.410     -68.790     -15.493
  H      127.686     -60.630     -19.334
  H      133.307     -63.621     -20.349
  H      129.594     -64.620     -19.852
  H      131.386     -64.994     -22.023
  H      133.177     -65.740     -20.563
  H      130.986     -67.319     -19.079
  H      133.260     -67.929     -18.394
  H      131.212     -57.817     -19.765
  H      132.586     -58.827     -20.224
  H      133.667     -66.217     -18.118
  P      133.551     -67.630     -22.388
  C      134.316     -65.769     -24.027
  O      133.231     -66.371     -23.330
  O      133.088     -68.880     -23.275
  O      134.962     -67.768     -21.925
  H      133.855     -69.249     -23.754
  H      133.954     -64.948     -24.610
  H      134.771     -66.492     -24.672
  H      135.039     -65.414     -23.323

 6  7  8  9  10  11  12  13  14  15  25  28  32  33  34  35 0
 6-311+G(2d,p)
 ****
 36  39  40 0
 6-311+G(2d,p)
 ****
 1  2  3  4  5  16  17  18  19  20  21  22  23  24 0
 3-21G
 ****
 26  27  29  30  31  37  38  41  42  43  44  45  46  47  48 0
 3-21G
 ****


