%nproc=1
%NoSave
%Mem=1900MB
#P OB98/GEN NMR

erre ene a

0 1
  C      399.087     344.918    -463.811
  O      399.808     344.644    -464.997
  P      401.304     345.242    -465.113
  C      400.549     347.443    -466.254
  O      401.292     346.240    -466.371
  C      399.811     347.774    -467.567
  O      400.797     348.108    -468.584
  C      398.956     346.622    -468.099
  O      397.776     347.187    -468.686
  C      399.814     346.025    -469.207
  O      399.015     345.336    -470.174
  C      400.542     347.269    -469.726
  N      401.770     346.949    -470.431
  C      401.862     347.352    -471.778
  O      400.898     347.892    -472.329
  N      403.021     347.094    -472.469
  C      403.954     346.381    -471.912
  N      405.089     346.164    -472.643
  C      403.850     345.832    -470.539
  C      402.747     346.164    -469.867
  O      402.138     343.983    -465.642
  O      401.845     345.792    -463.839
  H      398.561     344.588    -469.731
  H      403.057     344.002    -465.306
  H      404.646     345.225    -470.137
  H      402.592     345.818    -468.840
  H      399.886     347.844    -470.415
  H      400.531     345.319    -468.784
  H      398.664     345.899    -467.332
  H      399.203     348.663    -467.400
  H      405.127     346.533    -473.578
  H      401.226     348.273    -466.044
  H      405.867     345.625    -472.287
  H      399.832     347.364    -465.428
  P      396.353     346.709    -468.116
  C      396.134     345.028    -470.046
  O      395.566     346.140    -469.389
  O      395.610     348.113    -467.883
  O      396.328     345.877    -466.882
  H      394.739     347.957    -467.465
  H      395.433     344.652    -470.800
  H      396.337     344.212    -469.332
  H      397.066     345.312    -470.544
  H      398.119     344.465    -463.869
  H      398.979     345.976    -463.696
  H      399.617     344.520    -462.971

 3  4  5  6  7  8  9  10  11  12  13  21  23  27  28  29  30  32 0
 6-311+G(2d,p)
 ****
 34  35 0
 6-311+G(2d,p)
 ****
 1  2  14  15  16  17  18  19  20  22  24  25  26 0
 3-21G
 ****
 31  33  36  37  38  39  40  41  42  43  44  45  46 0
 3-21G
 ****


