%nproc=1
%NoSave
%Mem=1900MB
#P OB98/GEN NMR

erre ene a

0 1
  C     -122.978    -129.973      90.108
  O     -122.773    -129.720      91.502
  P     -121.332    -129.321      92.087
  C     -122.283    -127.612      93.752
  O     -121.469    -128.770      93.592
  C     -123.779    -127.938      93.863
  O     -124.004    -129.054      94.766
  C     -124.656    -126.783      94.367
  O     -125.930    -126.953      93.740
  C     -124.750    -127.079      95.853
  O     -125.834    -126.424      96.495
  C     -124.864    -128.600      95.828
  N     -125.835    -128.800     100.851
  C     -126.514    -128.238      99.828
  N     -126.212    -128.259      98.515
  C     -125.104    -128.982      98.288
  C     -124.313    -129.621      99.229
  C     -124.711    -129.501     100.572
  N     -123.999    -130.030     101.624
  N     -123.235    -130.240      98.625
  C     -123.372    -129.968      97.343
  N     -124.488    -129.214      97.086
  O     -120.530    -128.437      91.189
  O     -120.584    -130.725      92.278
  H     -126.663    -126.831      96.185
  H     -119.676    -130.653      91.926
  H     -127.414    -127.694     100.101
  H     -122.686    -130.271      96.562
  H     -125.885    -128.919      95.589
  H     -123.826    -126.750      96.345
  H     -124.242    -125.795      94.153
  H     -124.119    -128.266      92.873
  H     -122.120    -126.952      92.892
  H     -124.314    -129.811     102.556
  H     -123.096    -130.443     101.447
  H     -121.957    -127.076      94.650
  P     -126.557    -125.826      92.790
  C     -128.491    -127.103      91.706
  O     -128.123    -126.140      92.677
  O     -125.859    -125.647      91.482
  O     -126.511    -124.487      93.669
  H     -126.587    -123.711      93.082
  H     -128.450    -126.654      90.709
  H     -129.511    -127.437      91.905
  H     -127.822    -127.968      91.741
  H     -124.005    -130.220      89.938
  H     -122.359    -130.789      89.799
  H     -122.724    -129.099      89.546

 3  4  5  6  7  8  9  10  11  12  22  25  29  30  31  32 0
 6-311+G(2d,p)
 ****
 33  36  37 0
 6-311+G(2d,p)
 ****
 1  2  13  14  15  16  17  18  19  20  21  23  24  26 0
 3-21G
 ****
 27  28  34  35  38  39  40  41  42  43  44  45  46  47  48 0
 3-21G
 ****


