%nproc=1
%NoSave
%Mem=1900MB
#P OB98/GEN NMR

erre ene a

0 1
  C       40.748     -52.357       7.381
  O       39.951     -51.617       6.466
  P       38.460     -52.129       6.171
  C       39.160     -53.764       4.284
  O       38.422     -52.602       4.637
  C       38.729     -54.298       2.919
  O       39.511     -55.482       2.607
  C       37.252     -54.692       2.827
  O       36.822     -54.421       1.488
  C       37.284     -56.193       3.043
  O       36.116     -56.836       2.540
  C       38.578     -56.546       2.315
  N       37.470     -61.410       3.428
  C       36.700     -60.390       2.995
  N       37.068     -59.122       2.720
  C       38.383     -58.952       2.937
  C       39.286     -59.889       3.411
  C       38.783     -61.177       3.659
  N       39.568     -62.221       4.090
  N       40.542     -59.333       3.530
  C       40.401     -58.084       3.137
  N       39.120     -57.816       2.746
  O       37.617     -50.769       6.165
  O       37.915     -53.103       7.158
  H       35.945     -56.499       1.641
  H       37.023     -50.742       6.940
  H       35.649     -60.625       2.842
  H       41.186     -57.342       3.119
  H       38.443     -56.587       1.227
  H       37.356     -56.412       4.114
  H       36.606     -54.177       3.546
  H       38.973     -53.543       2.161
  H       38.976     -54.537       5.036
  H       39.165     -63.143       4.114
  H       40.576     -62.109       4.083
  H       40.229     -53.530       4.280
  P       35.545     -53.467       1.314
  C       34.407     -55.393       0.004
  O       34.728     -54.017       0.053
  O       36.180     -52.094       0.788
  O       34.759     -53.265       2.567
  H       35.616     -51.344       1.051
  H       33.444     -55.514      -0.499
  H       34.341     -55.833       1.004
  H       35.175     -55.921      -0.567
  H       41.709     -51.895       7.472
  H       40.867     -53.358       7.022
  H       40.269     -52.375       8.338

 3  4  5  6  7  8  9  10  11  12  22  25  29  30  31  32 0
 6-311+G(2d,p)
 ****
 33  36  37 0
 6-311+G(2d,p)
 ****
 1  2  13  14  15  16  17  18  19  20  21  23  24  26 0
 3-21G
 ****
 27  28  34  35  38  39  40  41  42  43  44  45  46  47  48 0
 3-21G
 ****


