%nproc=1
%NoSave
%Mem=1900MB
#P OB98/GEN NMR

erre ene a

0 1
  C       59.492    -206.061      91.936
  O       60.920    -206.090      92.030
  P       61.739    -204.716      91.994
  C       61.806    -204.252      89.468
  O       61.284    -203.852      90.726
  C       61.474    -203.218      88.374
  O       62.203    -201.983      88.637
  C       61.836    -203.703      86.956
  O       60.763    -203.556      86.010
  C       63.101    -202.910      86.633
  O       63.327    -202.776      85.235
  C       62.911    -201.613      87.427
  N       64.185    -200.949      87.727
  C       64.745    -200.200      86.701
  O       64.272    -200.131      85.570
  N       65.930    -199.578      87.009
  C       66.624    -199.686      88.172
  O       67.696    -199.137      88.375
  C       66.017    -200.547      89.202
  C       64.838    -201.132      88.939
  O       63.214    -204.846      92.180
  O       61.098    -203.900      93.224
  H       62.654    -202.143      84.867
  H       61.819    -203.401      93.675
  H       66.335    -199.001      86.271
  H       66.544    -200.677      90.117
  H       64.374    -201.777      89.659
  H       62.289    -200.906      86.875
  H       63.959    -203.447      87.047
  H       62.073    -204.772      86.937
  H       60.403    -203.011      88.442
  H       61.376    -205.221      89.177
  H       62.899    -204.404      89.542
  P       59.774    -204.748      85.607
  C       60.728    -205.630      83.367
  O       60.588    -205.833      84.762
  O       58.479    -204.319      85.000
  O       59.505    -205.485      87.004
  H       58.560    -205.754      87.069
  H       60.958    -206.593      82.895
  H       61.556    -204.924      83.181
  H       59.802    -205.229      82.916
  H       59.112    -207.060      91.976
  H       59.205    -205.607      91.011
  H       59.092    -205.494      92.751

 3  4  5  6  7  8  9  10  11  12  13  23  28  29  30  31  32 0
 6-311+G(2d,p)
 ****
 33  34 0
 6-311+G(2d,p)
 ****
 1  2  14  15  16  17  18  19  20  21  22  24  25  26  27 0
 3-21G
 ****
 35  36  37  38  39  40  41  42  43  44  45 0
 3-21G
 ****


