%nproc=1
%NoSave
%Mem=1900MB
#P OB98/GEN NMR

erre ene a

0 1
  C      -88.799      93.592      79.990
  O      -88.817      92.509      79.076
  P      -88.504      91.035      79.628
  C      -86.047      90.965      78.698
  O      -86.914      90.945      79.818
  C      -85.646      89.538      78.309
  O      -84.949      89.577      77.034
  C      -84.724      88.840      79.317
  O      -85.075      87.449      79.324
  C      -83.346      89.038      78.707
  O      -82.398      88.090      79.171
  C      -83.677      88.922      77.213
  N      -82.663      89.521      76.343
  C      -81.431      88.881      76.242
  O      -81.139      87.855      76.859
  N      -80.514      89.483      75.420
  C      -80.679      90.663      74.756
  O      -79.815      91.164      74.046
  C      -81.982      91.317      74.937
  C      -82.901      90.723      75.703
  O      -88.793      90.150      78.329
  O      -89.300      90.665      80.833
  H      -88.535      90.593      77.503
  H      -82.618      87.226      78.776
  H      -79.625      89.014      75.303
  H      -82.147      92.266      74.440
  H      -83.870      91.185      75.852
  H      -83.816      87.868      76.942
  H      -82.979      90.039      78.958
  H      -84.815      89.252      80.326
  H      -86.564      88.952      78.161
  H      -85.148      91.531      78.948
  H      -86.547      91.473      77.865
  P      -84.987      86.652      80.719
  C      -83.536      84.767      79.622
  O      -83.691      85.714      80.653
  O      -86.193      85.606      80.522
  O      -85.148      87.497      81.941
  H      -86.164      85.156      79.663
  H      -82.482      84.484      79.557
  H      -83.847      85.174      78.656
  H      -84.127      83.876      79.852
  H      -89.025      94.500      79.471
  H      -87.829      93.667      80.435
  H      -89.529      93.426      80.754

 3  4  5  6  7  8  9  10  11  12  13  24  28  29  30  31  32 0
 6-311+G(2d,p)
 ****
 33  34 0
 6-311+G(2d,p)
 ****
 1  2  14  15  16  17  18  19  20  21  22  23  25  26  27 0
 3-21G
 ****
 35  36  37  38  39  40  41  42  43  44  45 0
 3-21G
 ****


