%nproc=1
%NoSave
%Mem=1900MB
#P OB98/GEN NMR

erre ene a

0 1
  C      764.082     163.760    1670.432
  O      764.789     163.309    1669.294
  H      764.515     164.711    1670.753
  H      764.169     163.041    1671.249
  H      763.026     163.930    1670.182
  P      764.421     161.874    1668.690
  C      766.358     160.783    1670.033
  O      765.782     160.997    1668.753
  C      767.758     160.190    1669.903
  O      767.657     158.884    1669.240
  C      768.732     161.045    1669.064
  O      770.072     160.815    1669.575
  C      768.573     160.432    1667.696
  O      769.597     160.849    1666.822
  C      768.495     158.948    1668.057
  N      767.969     158.148    1666.975
  C      768.745     157.037    1666.573
  O      769.812     156.813    1667.142
  N      768.277     156.253    1665.556
  C      767.194     156.566    1664.931
  N      766.809     155.755    1663.902
  C      766.375     157.744    1665.272
  C      766.789     158.489    1666.295
  O      763.758     161.874    1667.355
  O      763.502     161.200    1669.810
  H      769.463     161.797    1666.558
  H      762.571     161.220    1669.527
  H      765.479     157.985    1664.700
  H      766.272     159.369    1666.637
  H      769.503     158.560    1668.329
  H      767.635     160.759    1667.228
  H      768.486     162.125    1669.103
  H      768.160     160.006    1670.946
  H      767.413     154.965    1663.706
  H      765.712     160.096    1670.586
  H      765.977     155.913    1663.328
  H      766.403     161.745    1670.587
  P      770.558     161.342    1671.026
  C      771.974     163.154    1669.844
  O      771.922     162.123    1670.869
  O      770.582     160.259    1672.087
  O      769.505     162.491    1671.432
  H      769.408     162.490    1672.398
  H      772.945     163.604    1669.840
  H      771.236     163.900    1670.051
  H      771.780     162.716    1668.887

 6  7  8  9  10  11  12  13  14  15  16  26  30  31  32  33  35 0
 6-311+G(2d,p)
 ****
 37  38 0
 6-311+G(2d,p)
 ****
 1  2  3  4  5  17  18  19  20  21  22  23  24  25 0
 3-21G
 ****
 27  28  29  34  36  39  40  41  42  43  44  45  46 0
 3-21G
 ****


