%nproc=1
%NoSave
%Mem=1900MB
#P OB98/GEN NMR

erre ene a

0 1
  C      248.226    -658.658     -67.054
  O      247.516    -657.616     -66.426
  H      247.744    -659.606     -66.806
  H      249.257    -658.679     -66.682
  H      248.233    -658.539     -68.140
  P      247.721    -656.117     -66.952
  C      245.843    -656.429     -68.699
  O      247.195    -656.056     -68.471
  C      244.976    -655.228     -69.083
  O      245.401    -654.685     -70.354
  C      243.502    -655.598     -69.254
  O      242.741    -655.632     -68.066
  C      243.010    -654.500     -70.195
  O      242.628    -653.325     -69.450
  C      244.243    -654.213     -71.054
  N      241.894    -654.411     -75.602
  C      241.581    -653.652     -74.490
  N      240.459    -652.899     -74.582
  N      242.284    -653.654     -73.385
  C      243.322    -654.528     -73.400
  C      243.730    -655.341     -74.447
  C      242.972    -655.289     -75.676
  O      243.210    -655.942     -76.693
  N      244.831    -656.091     -74.094
  C      245.035    -655.786     -72.825
  N      244.170    -654.820     -72.370
  O      249.312    -655.992     -67.131
  O      247.199    -655.041     -66.052
  H      242.277    -652.666     -70.072
  H      249.584    -655.062     -67.039
  H      241.346    -654.342     -76.433
  H      245.815    -656.219     -72.202
  H      244.376    -653.132     -71.206
  H      242.128    -654.816     -70.764
  H      239.826    -652.956     -75.358
  H      243.418    -656.560     -69.780
  H      240.051    -652.544     -73.711
  H      245.109    -654.436     -68.337
  H      245.479    -656.869     -67.770
  H      245.787    -657.205     -69.471
  P      241.431    -656.552     -67.979
  C      242.969    -658.615     -67.551
  O      241.894    -658.056     -68.281
  O      240.613    -656.130     -69.279
  O      240.621    -656.375     -66.734
  H      239.935    -655.464     -69.060
  H      243.140    -659.618     -67.881
  H      242.729    -658.618     -66.508
  H      243.851    -658.031     -67.712

 6  7  8  9  10  11  12  13  14  15  26  29  33  34 0
 6-311+G(2d,p)
 ****
 36  38  39  40  41 0
 6-311+G(2d,p)
 ****
 1  2  3  4  5  16  17  18  19  20  21  22  23  24  25 0
 3-21G
 ****
 27  28  30  31  32  35  37  42  43  44  45  46  47 0
 3-21G
 ****
 48  49 0
 3-21G
 ****


