%nproc=1
%NoSave
%Mem=1900MB
#P OB98/GEN NMR

erre ene a

0 1
  C      416.150    -295.458    -527.224
  O      416.500    -296.092    -526.016
  H      416.632    -294.477    -527.259
  H      415.067    -295.324    -527.287
  H      416.498    -296.055    -528.075
  P      415.804    -297.511    -525.721
  C      418.107    -298.733    -525.849
  O      416.806    -298.574    -526.397
  C      419.156    -298.547    -526.941
  O      419.209    -297.173    -527.377
  C      420.589    -298.888    -526.509
  O      420.848    -300.282    -526.467
  C      421.363    -298.203    -527.624
  O      421.262    -298.981    -528.834
  C      420.584    -296.874    -527.746
  N      421.127    -295.814    -526.896
  C      422.442    -295.402    -527.165
  O      423.091    -295.924    -528.075
  N      423.007    -294.424    -526.373
  C      422.310    -293.894    -525.416
  N      422.929    -292.935    -524.662
  C      420.928    -294.285    -525.102
  C      420.402    -295.234    -525.878
  O      414.551    -297.523    -526.720
  O      415.464    -297.788    -524.291
  H      421.771    -298.505    -529.521
  H      414.131    -298.423    -526.725
  H      420.392    -293.817    -524.288
  H      419.379    -295.578    -525.708
  H      420.571    -296.525    -528.786
  H      422.419    -298.097    -527.402
  H      420.835    -298.412    -525.558
  H      418.852    -299.158    -527.811
  H      423.901    -292.732    -524.865
  H      418.172    -299.740    -525.422
  H      422.534    -292.569    -523.806
  H      418.280    -297.995    -525.052
  P      421.466    -300.869    -525.106
  C      419.873    -302.790    -524.339
  O      420.230    -301.414    -524.226
  O      421.922    -299.561    -524.317
  O      422.595    -301.835    -525.292
  H      422.726    -299.732    -523.781
  H      419.041    -302.996    -523.698
  H      420.704    -303.399    -524.051
  H      419.606    -303.007    -525.352

 6  7  8  9  10  11  12  13  14  15  16  26  30  31  32  33  35 0
 6-311+G(2d,p)
 ****
 37  38 0
 6-311+G(2d,p)
 ****
 1  2  3  4  5  17  18  19  20  21  22  23  24  25 0
 3-21G
 ****
 27  28  29  34  36  39  40  41  42  43  44  45  46 0
 3-21G
 ****


