%nproc=1
%NoSave
%Mem=1900MB
#P OB98/GEN NMR

erre ene a

0 1
  C       63.190     -66.069      22.938
  O       64.580     -65.964      22.704
  H       62.967     -65.853      23.986
  H       62.671     -65.342      22.310
  H       62.837     -67.074      22.681
  P       65.524     -66.978      23.516
  C       65.740     -65.247      25.440
  O       65.388     -66.571      25.064
  C       65.673     -65.097      26.958
  O       64.318     -65.281      27.418
  C       66.510     -66.111      27.735
  O       67.881     -65.742      27.773
  C       65.869     -66.010      29.111
  O       66.360     -64.839      29.792
  C       64.383     -65.831      28.760
  N       62.622     -69.576      31.772
  C       63.280     -68.429      32.048
  N       63.699     -67.471      31.196
  C       63.354     -67.780      29.934
  C       62.663     -68.898      29.497
  C       62.291     -69.833      30.479
  N       61.677     -71.038      30.174
  N       62.509     -68.874      28.124
  C       63.113     -67.769      27.739
  N       63.632     -67.072      28.796
  O       66.998     -66.484      23.119
  O       65.320     -68.423      23.205
  H       67.310     -64.988      29.957
  H       67.338     -67.043      22.395
  H       63.507     -68.259      33.097
  H       63.203     -67.439      26.712
  H       63.885     -65.117      29.426
  H       66.086     -66.872      29.751
  H       66.373     -67.128      27.349
  H       65.972     -64.071      27.209
  H       65.043     -64.539      24.977
  H       61.886     -71.779      30.837
  H       61.704     -71.284      29.191
  H       66.751     -65.037      25.082
  P       68.970     -66.912      27.618
  C       69.704     -66.962      30.099
  O       69.050     -67.654      29.041
  O       70.350     -66.102      27.533
  O       68.791     -67.799      26.434
  H       70.823     -66.343      26.714
  H       69.686     -67.564      30.983
  H       69.199     -66.038      30.287
  H       70.719     -66.764      29.822

 6  7  8  9  10  11  12  13  14  15  25  28  32  33  34  35 0
 6-311+G(2d,p)
 ****
 36  39  40 0
 6-311+G(2d,p)
 ****
 1  2  3  4  5  16  17  18  19  20  21  22  23  24 0
 3-21G
 ****
 26  27  29  30  31  37  38  41  42  43  44  45  46  47  48 0
 3-21G
 ****


