%nproc=1
%NoSave
%Mem=1900MB
#P OB98/GEN NMR

erre ene a

0 1
  C      290.447    -238.706    -293.774
  O      289.839    -237.628    -293.092
  H      290.851    -238.371    -294.734
  H      291.265    -239.092    -293.161
  H      289.719    -239.505    -293.935
  P      288.677    -236.852    -293.881
  C      286.654    -237.933    -292.672
  O      287.428    -236.759    -292.874
  C      285.868    -237.825    -291.370
  O      286.750    -237.976    -290.240
  C      285.166    -236.490    -291.155
  O      283.958    -236.398    -291.900
  C      284.899    -236.548    -289.659
  O      283.731    -237.350    -289.406
  C      286.152    -237.261    -289.127
  N      287.895    -235.049    -284.833
  C      286.873    -235.910    -285.054
  N      286.461    -236.447    -286.220
  C      287.235    -236.025    -287.237
  C      288.304    -235.151    -287.165
  C      288.628    -234.646    -285.897
  N      289.659    -233.757    -285.683
  N      288.865    -234.963    -288.409
  C      288.143    -235.709    -289.223
  N      287.140    -236.366    -288.560
  O      288.191    -237.919    -294.974
  O      289.084    -235.565    -294.516
  H      282.960    -236.816    -289.677
  H      287.949    -237.445    -295.792
  H      286.313    -236.212    -284.172
  H      288.314    -235.806    -290.289
  H      285.895    -238.010    -288.370
  H      284.723    -235.566    -289.216
  H      285.836    -235.649    -291.374
  H      285.147    -238.652    -291.345
  H      287.317    -238.802    -292.621
  H      289.965    -233.589    -284.740
  H      290.211    -233.470    -286.485
  H      285.973    -238.056    -293.521
  P      283.571    -234.964    -292.509
  C      283.541    -235.806    -294.965
  O      282.792    -235.273    -293.879
  O      284.981    -234.392    -293.012
  O      282.898    -234.031    -291.561
  H      284.955    -233.415    -293.031
  H      282.894    -235.959    -295.803
  H      283.975    -236.740    -294.674
  H      284.317    -235.120    -295.234

 6  7  8  9  10  11  12  13  14  15  25  28  32  33  34  35 0
 6-311+G(2d,p)
 ****
 36  39  40 0
 6-311+G(2d,p)
 ****
 1  2  3  4  5  16  17  18  19  20  21  22  23  24 0
 3-21G
 ****
 26  27  29  30  31  37  38  41  42  43  44  45  46  47  48 0
 3-21G
 ****


