%nproc=1
%NoSave
%Mem=1900MB
#P OB98/GEN NMR

erre ene a

0 1
  C     -220.482      12.991     252.045
  O     -220.317      14.136     251.223
  P     -219.131      15.183     251.488
  C     -217.619      16.622     249.986
  O     -218.695      15.692     250.030
  C     -217.221      16.895     248.538
  O     -216.773      15.654     247.943
  C     -218.339      17.397     247.622
  O     -218.562      18.798     247.677
  C     -217.769      17.033     246.256
  O     -216.782      18.005     245.866
  C     -217.103      15.683     246.533
  N     -217.947      11.850     243.250
  C     -216.977      12.788     243.316
  N     -216.830      13.787     244.210
  C     -217.803      13.737     245.135
  C     -218.857      12.839     245.204
  C     -218.911      11.856     244.201
  N     -219.892      10.888     244.149
  N     -219.665      13.118     246.290
  C     -219.099      14.154     246.869
  N     -217.968      14.560     246.215
  O     -218.033      14.667     252.351
  O     -219.864      16.460     252.109
  H     -216.114      18.034     246.578
  H     -219.209      17.040     252.545
  H     -216.214      12.730     242.542
  H     -219.472      14.644     247.758
  H     -216.166      15.554     245.977
  H     -218.528      17.017     245.469
  H     -219.269      16.838     247.784
  H     -216.375      17.594     248.537
  H     -216.765      16.185     250.517
  H     -219.776      10.150     243.475
  H     -220.508      10.794     244.944
  H     -217.908      17.543     250.497
  P     -219.765      19.383     246.781
  C     -221.612      21.187     247.222
  O     -220.563      20.394     247.737
  O     -220.596      18.348     246.108
  O     -219.007      20.359     245.764
  H     -218.603      21.145     246.167
  H     -222.121      21.676     248.056
  H     -222.336      20.573     246.682
  H     -221.208      21.956     246.557
  H     -221.324      12.426     251.704
  H     -220.645      13.299     253.057
  H     -219.601      12.385     251.994

 3  4  5  6  7  8  9  10  11  12  22  25  29  30  31  32 0
 6-311+G(2d,p)
 ****
 33  36  37 0
 6-311+G(2d,p)
 ****
 1  2  13  14  15  16  17  18  19  20  21  23  24  26 0
 3-21G
 ****
 27  28  34  35  38  39  40  41  42  43  44  45  46  47  48 0
 3-21G
 ****


