%nproc=1
%NoSave
%Mem=1900MB
#P OB98/GEN NMR

erre ene a

0 1
  C     -128.434     -69.061    -713.239
  O     -128.883     -70.383    -713.408
  P     -130.352     -70.883    -713.031
  C     -129.727     -72.478    -711.053
  O     -130.239     -72.340    -712.374
  C     -129.194     -73.901    -710.810
  O     -130.331     -74.799    -710.680
  C     -128.360     -74.415    -712.010
  O     -127.195     -75.118    -711.629
  C     -129.392     -75.153    -712.849
  O     -128.819     -76.077    -713.760
  C     -130.307     -75.740    -711.775
  N     -134.157     -79.064    -711.889
  C     -133.001     -79.089    -711.124
  N     -132.766     -80.241    -710.450
  N     -132.154     -78.100    -711.074
  C     -132.462     -77.071    -711.888
  C     -133.575     -76.926    -712.693
  C     -134.525     -78.019    -712.716
  O     -135.501     -78.082    -713.462
  N     -133.530     -75.771    -713.437
  C     -132.368     -75.239    -713.114
  N     -131.670     -76.003    -712.202
  O     -131.419     -70.646    -714.054
  O     -130.694     -69.954    -711.754
  H     -128.172     -75.588    -714.312
  H     -131.654     -69.770    -711.776
  H     -134.732     -79.896    -711.958
  H     -131.964     -74.320    -713.531
  H     -129.921     -76.684    -711.401
  H     -129.930     -74.398    -713.452
  H     -133.331     -81.073    -710.590
  H     -127.974     -73.558    -712.579
  H     -131.826     -80.382    -710.085
  H     -128.646     -73.923    -709.870
  H     -130.561     -72.259    -710.376
  H     -128.941     -71.733    -710.865
  P     -125.747     -75.107    -712.313
  C     -125.655     -77.643    -712.734
  O     -125.056     -76.535    -712.077
  O     -124.868     -74.130    -711.396
  O     -125.729     -74.632    -713.728
  H     -124.284     -73.588    -711.966
  H     -125.269     -78.566    -712.285
  H     -125.372     -77.630    -713.796
  H     -126.742     -77.616    -712.642
  H     -127.418     -68.985    -713.565
  H     -128.498     -68.792    -712.205
  H     -129.045     -68.400    -713.818

 3  4  5  6  7  8  9  10  11  12  23  26  30  31 0
 6-311+G(2d,p)
 ****
 33  35  36  37  38 0
 6-311+G(2d,p)
 ****
 1  2  13  14  15  16  17  18  19  20  21  22  24  25 0
 3-21G
 ****
 27  28  29  32  34  39  40  41  42  43  44  45  46  47  48  49 0
 3-21G
 ****


