%nproc=1
%NoSave
%Mem=1900MB
#P OB98/GEN NMR

erre ene a

0 1
  C      296.880       3.385    -522.366
  O      296.075       4.213    -523.181
  H      296.437       2.387    -522.287
  H      297.873       3.294    -522.818
  H      296.985       3.824    -521.367
  P      294.561       4.445    -522.707
  C      294.189       6.731    -523.899
  O      293.891       5.339    -523.860
  C      293.832       7.284    -525.274
  O      294.817       6.868    -526.249
  C      292.486       6.793    -525.803
  O      291.394       7.526    -525.286
  C      292.661       7.041    -527.294
  O      292.497       8.442    -527.576
  C      294.126       6.622    -527.508
  N      293.492       3.149    -531.220
  C      293.292       4.486    -531.189
  N      293.504       5.343    -530.168
  C      293.987       4.692    -529.096
  C      294.239       3.335    -528.980
  C      293.967       2.542    -530.107
  N      294.136       1.175    -530.133
  N      294.700       3.035    -527.710
  C      294.738       4.192    -527.082
  N      294.280       5.219    -527.867
  O      294.697       5.477    -521.489
  O      293.793       3.219    -522.351
  H      291.675       8.729    -527.134
  H      293.862       5.515    -520.981
  H      292.909       4.928    -532.106
  H      295.073       4.339    -526.065
  H      294.625       7.212    -528.281
  H      291.932       6.502    -527.902
  H      292.355       5.716    -525.641
  H      293.854       8.379    -525.225
  H      295.259       6.873    -523.712
  H      293.775       0.678    -530.930
  H      294.352       0.699    -529.268
  H      293.613       7.247    -523.123
  P      289.969       6.786    -525.204
  C      289.071       8.177    -523.206
  O      288.939       7.845    -524.582
  O      290.181       5.733    -524.023
  O      289.537       6.131    -526.480
  H      289.654       4.921    -524.176
  H      288.320       8.890    -522.937
  H      290.040       8.597    -523.032
  H      288.953       7.294    -522.613

 6  7  8  9  10  11  12  13  14  15  25  28  32  33  34  35 0
 6-311+G(2d,p)
 ****
 36  39  40 0
 6-311+G(2d,p)
 ****
 1  2  3  4  5  16  17  18  19  20  21  22  23  24 0
 3-21G
 ****
 26  27  29  30  31  37  38  41  42  43  44  45  46  47 0
 3-21G
 ****
 48 0
 3-21G
 ****


