%nproc=1
%NoSave
%Mem=1900MB
#P OB98/GEN NMR

erre ene a

0 1
  C     -115.085     597.328     140.409
  O     -115.076     598.486     139.565
  P     -114.085     599.675     139.989
  C     -116.021     601.382     139.713
  O     -114.676     601.048     139.399
  C     -116.606     602.321     138.648
  O     -116.599     601.729     137.343
  C     -118.053     602.714     138.924
  O     -118.095     603.739     139.900
  C     -118.516     603.173     137.550
  O     -118.149     604.546     137.298
  C     -117.747     602.235     136.604
  N     -122.028     600.849     134.268
  C     -121.650     602.085     134.769
  N     -122.530     603.102     134.598
  N     -120.520     602.311     135.370
  C     -119.733     601.198     135.467
  C     -119.988     599.933     134.981
  C     -121.255     599.703     134.318
  O     -121.624     598.639     133.827
  N     -118.934     599.088     135.214
  C     -118.098     599.809     135.946
  N     -118.517     601.115     136.077
  O     -112.778     599.404     139.109
  O     -113.775     599.691     141.451
  H     -117.187     604.644     137.385
  H     -112.047     599.105     139.686
  H     -122.922     600.740     133.810
  H     -117.184     599.445     136.378
  H     -117.357     602.771     135.733
  H     -119.601     603.117     137.444
  H     -123.425     603.001     134.136
  H     -118.631     601.831     139.249
  H     -122.270     604.009     134.955
  H     -115.967     603.220     138.627
  H     -116.067     601.863     140.690
  H     -116.608     600.462     139.790
  P     -119.341     603.756     140.916
  C     -120.566     605.864     140.017
  O     -119.816     605.271     141.068
  O     -118.655     603.427     142.328
  O     -120.412     602.770     140.600
  H     -119.192     602.774     142.815
  H     -121.233     606.614     140.431
  H     -121.157     605.118     139.475
  H     -119.874     606.350     139.314
  H     -115.780     596.612     140.024
  H     -115.375     597.611     141.399
  H     -114.106     596.897     140.434

 3  4  5  6  7  8  9  10  11  12  23  26  30  31 0
 6-311+G(2d,p)
 ****
 33  35  36  37  38 0
 6-311+G(2d,p)
 ****
 1  2  13  14  15  16  17  18  19  20  21  22  24  25 0
 3-21G
 ****
 27  28  29  32  34  39  40  41  42  43  44  45  46  47  48  49 0
 3-21G
 ****


