%nproc=1
%NoSave
%Mem=1900MB
#P OB98/GEN NMR

erre ene a

0 1
  C       -5.814       2.476     -85.728
  O       -4.821       2.985     -86.625
  P       -5.318       3.924     -87.826
  C       -3.344       5.566     -88.202
  O       -4.038       4.415     -88.659
  C       -2.121       5.184     -87.356
  O       -1.326       4.169     -88.026
  C       -1.184       6.362     -87.071
  O       -0.551       6.138     -85.806
  C       -0.142       6.227     -88.165
  O        1.052       6.943     -87.850
  C       -0.003       4.708     -88.224
  N        4.179       3.024     -90.485
  C        3.975       3.436     -89.183
  N        5.036       3.354     -88.352
  N        2.832       3.887     -88.735
  C        1.853       3.877     -89.672
  C        1.932       3.501     -90.993
  C        3.209       3.028     -91.481
  O        3.451       2.663     -92.626
  N        0.728       3.658     -91.631
  C       -0.074       4.136     -90.697
  N        0.552       4.251     -89.485
  O       -5.799       5.250     -87.067
  O       -6.424       3.334     -88.636
  H        1.393       6.584     -87.003
  H       -6.771       5.307     -87.090
  H        5.083       2.694     -90.779
  H       -1.107       4.413     -90.844
  H        0.649       4.318     -87.431
  H       -0.540       6.622     -89.108
  H        5.929       2.968     -88.619
  H       -1.667       7.344     -87.065
  H        4.902       3.611     -87.381
  H       -2.471       4.754     -86.411
  H       -4.012       6.197     -87.609
  H       -3.057       6.174     -89.067
  P       -1.321       6.667     -84.505
  C       -1.315       4.951     -82.557
  O       -0.614       5.966     -83.251
  O       -2.745       5.940     -84.588
  O       -1.454       8.152     -84.420
  H       -3.417       6.456     -84.107
  H       -0.908       3.978     -82.842
  H       -2.388       4.973     -82.771
  H       -1.169       5.097     -81.483
  H       -5.344       1.870     -84.982
  H       -6.519       1.886     -86.275
  H       -6.321       3.292     -85.257

 3  4  5  6  7  8  9  10  11  12  23  26  30  31 0
 6-311+G(2d,p)
 ****
 33  35  36  37  38 0
 6-311+G(2d,p)
 ****
 1  2  13  14  15  16  17  18  19  20  21  22  24  25 0
 3-21G
 ****
 27  28  29  32  34  39  40  41  42  43  44  45  46  47  48  49 0
 3-21G
 ****


