%nproc=1
%NoSave
%Mem=1900MB
#P OB98/GEN NMR

erre ene a

0 1
  C     -340.432    -163.265     245.182
  O     -340.204    -163.979     243.972
  P     -341.358    -164.965     243.459
  C     -341.230    -164.406     240.932
  O     -340.979    -165.372     241.951
  C     -340.356    -164.677     239.709
  O     -339.007    -164.187     239.980
  C     -340.240    -166.153     239.318
  O     -340.354    -166.274     237.890
  C     -338.811    -166.515     239.696
  O     -338.320    -167.605     238.928
  C     -338.109    -165.181     239.441
  N     -333.216    -166.286     238.835
  C     -334.253    -166.322     237.918
  N     -333.943    -166.779     236.681
  N     -335.478    -165.964     238.193
  C     -335.633    -165.499     239.457
  C     -334.682    -165.401     240.446
  C     -333.344    -165.865     240.151
  O     -332.408    -165.945     240.945
  N     -335.215    -164.862     241.600
  C     -336.484    -164.641     241.302
  N     -336.797    -165.055     240.030
  O     -342.612    -163.985     243.282
  O     -341.689    -166.098     244.374
  H     -338.925    -168.357     239.067
  H     -343.371    -164.310     243.811
  H     -332.296    -166.597     238.577
  H     -337.218    -164.216     241.975
  H     -338.009    -165.004     238.362
  H     -338.784    -166.792     240.756
  H     -333.013    -167.047     236.391
  H     -340.978    -166.807     239.803
  H     -334.684    -166.797     235.986
  H     -340.741    -164.082     238.869
  H     -341.011    -163.407     241.328
  H     -342.293    -164.459     240.657
  P     -341.337    -167.435     237.355
  C     -342.253    -166.100     235.316
  O     -341.484    -167.193     235.779
  O     -342.769    -167.001     237.945
  O     -340.944    -168.812     237.786
  H     -343.352    -167.779     238.030
  H     -342.555    -165.425     236.135
  H     -343.158    -166.485     234.836
  H     -341.669    -165.545     234.583
  H     -339.583    -162.651     245.399
  H     -340.584    -163.959     245.982
  H     -341.300    -162.649     245.074

 3  4  5  6  7  8  9  10  11  12  23  26  30  31  33  0
 6-311+G(2d,p)
 ****
 35  36  37  38 0
 6-311+G(2d,p)
 ****
 1  2  13  14  15  16  17  18  19  20  21  22  24  25  27  28  29 0
 3-21G
 ****
 32  34  39  40  41  42  43  44  45  46  47  48  49 0
 3-21G
 ****


