%nproc=1
%NoSave
%Mem=1900MB
#P OB98/GEN NMR

erre ene a

0 1
  C     -279.003    -172.980    -305.521
  O     -280.171    -172.185    -305.629
  P     -280.478    -171.492    -307.045
  C     -279.534    -169.229    -306.167
  O     -279.486    -170.235    -307.163
  C     -279.864    -167.867    -306.792
  O     -278.686    -167.381    -307.490
  C     -281.013    -167.888    -307.810
  O     -281.676    -166.622    -307.718
  C     -280.289    -167.990    -309.144
  O     -281.086    -167.550    -310.237
  C     -279.064    -167.133    -308.863
  N     -276.717    -165.984    -313.203
  C     -277.901    -165.486    -312.670
  N     -278.501    -164.502    -313.371
  N     -278.431    -165.911    -311.555
  C     -277.706    -166.891    -310.959
  C     -276.553    -167.490    -311.404
  C     -275.954    -166.984    -312.617
  O     -274.865    -167.334    -313.077
  N     -276.160    -168.510    -310.575
  C     -277.034    -168.465    -309.584
  N     -277.962    -167.471    -309.754
  O     -281.918    -170.822    -306.810
  O     -280.456    -172.408    -308.235
  H     -281.811    -168.195    -310.355
  H     -282.632    -171.419    -307.107
  H     -276.344    -165.596    -314.051
  H     -277.039    -169.121    -308.722
  H     -279.260    -166.060    -308.975
  H     -280.013    -169.039    -309.327
  H     -278.129    -164.103    -314.223
  H     -281.724    -168.707    -307.646
  H     -279.350    -164.097    -312.985
  H     -280.080    -167.160    -305.982
  H     -278.554    -169.162    -305.683
  H     -280.278    -169.491    -305.404
  P     -283.227    -166.617    -307.315
  C     -284.058    -166.910    -309.752
  O     -284.029    -167.427    -308.435
  O     -283.658    -165.088    -307.589
  O     -283.511    -166.996    -305.897
  H     -284.353    -164.832    -306.954
  H     -284.275    -167.729    -310.447
  H     -283.106    -166.451    -310.024
  H     -284.855    -166.165    -309.827
  H     -278.930    -173.374    -304.529
  H     -278.142    -172.380    -305.731
  H     -279.055    -173.787    -306.222

 3  4  5  6  7  8  9  10  11  12  23  26  30  31 0
 6-311+G(2d,p)
 ****
 33  35  36  37  38 0
 6-311+G(2d,p)
 ****
 1  2  13  14  15  16  17  18  19  20  21  22  24  25 0
 3-21G
 ****
 27  28  29  32  34  39  40  41  42  43  44  45  46  47  48  49 0
 3-21G
 ****


