%nproc=1
%NoSave
%Mem=1900MB
#P OB98/GEN NMR

erre ene a

0 1
  C       12.099    -243.091    -325.111
  O       12.757    -242.179    -325.996
  P       14.210    -242.594    -326.538
  C       15.201    -240.199    -326.207
  O       14.871    -241.245    -327.103
  C       14.936    -238.829    -326.846
  O       15.860    -238.616    -327.956
  C       13.511    -238.645    -327.382
  O       13.143    -237.281    -327.126
  C       13.674    -238.877    -328.872
  O       12.622    -238.287    -329.622
  C       15.059    -238.263    -329.102
  N       15.677    -238.716    -330.347
  C       15.376    -237.995    -331.496
  O       14.569    -237.067    -331.514
  N       16.002    -238.409    -332.642
  C       16.821    -239.494    -332.760
  O       17.355    -239.821    -333.813
  C       17.010    -240.284    -331.535
  C       16.438    -239.864    -330.404
  O       13.830    -243.429    -327.846
  O       15.021    -243.333    -325.525
  H       13.062    -243.074    -328.326
  H       12.613    -237.321    -329.455
  H       15.824    -237.879    -333.481
  H       17.604    -241.188    -331.601
  H       16.540    -240.436    -329.490
  H       14.993    -237.169    -329.128
  H       13.690    -239.953    -329.082
  H       12.788    -239.318    -326.911
  H       15.151    -238.060    -326.093
  H       16.261    -240.262    -325.937
  H       14.628    -240.322    -325.280
  P       12.237    -236.966    -325.833
  C        9.863    -237.234    -326.901
  O       10.845    -236.380    -326.366
  O       12.989    -235.664    -325.276
  O       12.166    -238.067    -324.827
  H       13.179    -235.006    -325.969
  H        8.921    -236.681    -326.980
  H        9.700    -238.103    -326.258
  H       10.161    -237.564    -327.901
  H       11.147    -242.691    -324.830
  H       12.698    -243.234    -324.236
  H       11.960    -244.030    -325.605

 3  4  5  6  7  8  9  10  11  12  13  24  28  29  30  31  32 0
 6-311+G(2d,p)
 ****
 33  34 0
 6-311+G(2d,p)
 ****
 1  2  14  15  16  17  18  19  20  21  22  23  25  26  27 0
 3-21G
 ****
 35  36  37  38  39  40  41  42  43  44  45 0
 3-21G
 ****


