%nproc=1
%NoSave
%Mem=1900MB
#P OB98/GEN NMR

erre ene a

0 1
  C     -448.121    -296.453     213.657
  O     -449.419    -296.243     214.210
  P     -449.569    -296.233     215.801
  C     -451.913    -297.207     216.342
  O     -451.126    -296.024     216.172
  C     -453.399    -296.858     216.494
  O     -453.603    -296.237     217.803
  C     -453.929    -295.848     215.469
  O     -454.456    -296.346     214.241
  C     -455.110    -295.241     216.229
  O     -456.274    -296.101     216.094
  C     -454.647    -295.243     217.681
  N     -453.524    -292.333     221.751
  C     -453.998    -293.603     221.642
  N     -454.262    -294.302     220.520
  C     -453.996    -293.570     219.426
  C     -453.506    -292.273     219.375
  C     -453.279    -291.639     220.608
  N     -452.804    -290.349     220.719
  N     -453.357    -291.858     218.077
  C     -453.771    -292.879     217.341
  N     -454.153    -293.945     218.119
  O     -448.618    -295.371     216.557
  O     -449.351    -297.787     216.180
  H     -456.975    -295.691     216.634
  H     -448.859    -297.836     217.020
  H     -454.182    -294.115     222.578
  H     -453.804    -292.888     216.268
  H     -455.443    -295.534     218.382
  H     -455.409    -294.258     215.843
  H     -453.190    -295.064     215.263
  H     -453.994    -297.773     216.464
  H     -451.569    -297.744     217.238
  H     -452.702    -289.962     221.642
  H     -452.658    -289.802     219.885
  H     -451.722    -297.859     215.487
  P     -453.539    -297.177     213.226
  C     -454.689    -296.111     211.113
  O     -454.395    -297.265     211.857
  O     -453.044    -298.482     213.737
  O     -452.391    -296.122     212.852
  H     -452.700    -295.361     212.323
  H     -455.074    -296.408     210.140
  H     -453.785    -295.509     210.975
  H     -455.450    -295.524     211.634
  H     -448.181    -296.433     212.589
  H     -447.747    -297.404     213.976
  H     -447.461    -295.680     213.992

 3  4  5  6  7  8  9  10  11  12  22  25  29  30  31  32 0
 6-311+G(2d,p)
 ****
 33  36  37 0
 6-311+G(2d,p)
 ****
 1  2  13  14  15  16  17  18  19  20  21  23  24  26 0
 3-21G
 ****
 27  28  34  35  38  39  40  41  42  43  44  45  46  47  48 0
 3-21G
 ****


