%nproc=1
%NoSave
%Mem=1900MB
#P OB98/GEN NMR

erre ene a

0 1
  C     -470.476      11.446    -297.578
  O     -469.585      10.393    -297.885
  H     -470.853      11.872    -298.510
  H     -469.957      12.232    -297.018
  H     -471.318      11.069    -296.995
  P     -468.866       9.667    -296.648
  C     -470.497       7.755    -295.986
  O     -470.035       9.075    -295.724
  C     -471.246       7.223    -294.767
  O     -470.311       6.956    -293.694
  C     -472.260       8.198    -294.186
  O     -473.461       8.231    -294.934
  C     -472.446       7.622    -292.794
  O     -473.401       6.550    -292.789
  C     -471.030       7.105    -292.454
  N     -470.330       7.980    -291.518
  C     -470.582       7.743    -290.170
  O     -471.339       6.857    -289.771
  N     -469.957       8.586    -289.290
  C     -469.159       9.643    -289.624
  O     -468.689      10.405    -288.787
  C     -468.919       9.836    -291.065
  C     -469.517       9.014    -291.932
  O     -468.289      10.893    -295.795
  O     -467.804       8.689    -297.021
  H     -467.332      10.981    -295.947
  H     -472.967       5.797    -293.238
  H     -470.132       8.435    -288.309
  H     -468.287      10.660    -291.360
  H     -469.373       9.151    -293.000
  H     -471.090       6.105    -292.001
  H     -472.811       8.373    -292.095
  H     -471.818       9.199    -294.101
  H     -471.733       6.277    -295.046
  H     -469.641       7.103    -296.191
  H     -471.148       7.776    -296.866
  P     -474.071       9.654    -295.343
  C     -474.779       9.296    -297.850
  O     -473.840       9.810    -296.928
  O     -472.999      10.650    -294.692
  O     -475.478       9.857    -294.896
  H     -472.093      10.306    -294.732
  H     -474.448       9.499    -298.847
  H     -475.729       9.761    -297.688
  H     -474.871       8.239    -297.713

 6  7  8  9  10  11  12  13  14  15  16  27  31  32  33  34  35 0
 6-311+G(2d,p)
 ****
 36  37 0
 6-311+G(2d,p)
 ****
 1  2  3  4  5  17  18  19  20  21  22  23  24  25 0
 3-21G
 ****
 26  28  29  30  38  39  40  41  42  43  44  45 0
 3-21G
 ****


