%nproc=1
%NoSave
%Mem=1900MB
#P OB98/GEN NMR

erre ene a

0 1
  C      105.234      93.177     -12.324
  O      105.896      94.030     -13.235
  H      104.231      92.939     -12.689
  H      105.803      92.247     -12.234
  H      105.171      93.649     -11.340
  P      105.225      95.462     -13.505
  C      104.427      94.648     -15.841
  O      104.064      95.203     -14.583
  C      103.174      94.191     -16.579
  O      102.546      93.101     -15.867
  C      102.101      95.265     -16.720
  O      102.366      96.150     -17.794
  C      100.882      94.405     -17.003
  O      100.908      93.961     -18.372
  C      101.109      93.219     -16.055
  N       97.571      91.359     -12.862
  C       97.955      90.983     -14.100
  N       98.902      91.534     -14.886
  C       99.478      92.579     -14.273
  C       99.187      93.084     -13.017
  C       98.184      92.420     -12.291
  N       97.779      92.810     -11.033
  N       99.966      94.191     -12.743
  C      100.735      94.329     -13.803
  N      100.472      93.386     -14.760
  O      106.337      96.245     -14.351
  O      104.793      96.215     -12.292
  H      100.375      93.145     -18.412
  H      106.184      97.207     -14.294
  H       97.429      90.127     -14.515
  H      101.494      95.091     -13.925
  H      100.753      92.272     -16.474
  H       99.940      94.935     -16.855
  H      101.947      95.807     -15.779
  H      103.479      93.814     -17.564
  H      105.085      93.790     -15.678
  H       96.934      92.387     -10.681
  H       98.125      93.685     -10.667
  H      104.960      95.403     -16.426
  P      101.918      97.681     -17.614
  C       99.717      97.110     -18.877
  O      100.319      97.684     -17.720
  O      102.386      98.360     -18.984
  O      102.491      98.363     -16.416
  H      102.554      99.313     -18.859
  H       98.653      97.188     -18.801
  H       99.995      96.079     -18.950
  H      100.051      97.632     -19.749

 6  7  8  9  10  11  12  13  14  15  25  28  32  33  34  35 0
 6-311+G(2d,p)
 ****
 36  39  40 0
 6-311+G(2d,p)
 ****
 1  2  3  4  5  16  17  18  19  20  21  22  23  24 0
 3-21G
 ****
 26  27  29  30  31  37  38  41  42  43  44  45  46  47 0
 3-21G
 ****
 48 0
 3-21G
 ****


