%nproc=1
%NoSave
%Mem=1900MB
#P OB98/GEN NMR

erre ene a

0 1
  C      148.840    -371.860     211.816
  O      147.952    -372.915     212.124
  P      147.980    -373.538     213.600
  C      145.584    -372.746     214.250
  O      146.465    -373.841     214.032
  C      144.491    -373.136     215.255
  O      143.585    -374.099     214.620
  C      145.010    -373.782     216.546
  O      144.130    -373.382     217.606
  C      144.838    -375.261     216.274
  O      144.838    -376.051     217.445
  C      143.508    -375.238     215.505
  N      143.253    -376.476     214.768
  C      142.229    -377.301     215.230
  O      141.530    -377.042     216.206
  N      142.060    -378.474     214.550
  C      142.858    -378.951     213.551
  O      142.727    -380.071     213.068
  C      143.937    -378.047     213.103
  C      144.083    -376.872     213.722
  O      148.387    -372.289     214.521
  O      148.913    -374.683     213.776
  H      144.926    -376.985     217.170
  H      149.338    -372.324     214.743
  H      141.316    -379.080     214.864
  H      144.565    -378.379     212.297
  H      144.878    -376.186     213.435
  H      142.679    -375.056     216.201
  H      145.663    -375.605     215.637
  H      146.049    -373.503     216.780
  H      143.889    -372.245     215.479
  H      145.126    -372.458     213.303
  H      146.150    -371.882     214.618
  P      144.772    -372.554     218.834
  C      142.509    -371.243     218.945
  O      143.543    -371.911     219.635
  O      145.414    -371.311     218.053
  O      145.754    -373.338     219.646
  H      144.824    -370.957     217.366
  H      142.309    -371.707     217.975
  H      142.784    -370.196     218.791
  H      141.590    -371.286     219.547
  H      148.697    -371.559     210.799
  H      149.848    -372.191     211.951
  H      148.647    -371.031     212.464

 3  4  5  6  7  8  9  10  11  12  13  23  28  29  30  31  32 0
 6-311+G(2d,p)
 ****
 33  34 0
 6-311+G(2d,p)
 ****
 1  2  14  15  16  17  18  19  20  21  22  24  25  26 0
 3-21G
 ****
 27  35  36  37  38  39  40  41  42  43  44  45 0
 3-21G
 ****


