%nproc=1
%NoSave
%Mem=1900MB
#P OB98/GEN NMR

erre ene a

0 1
  C     -219.514     288.154     -16.104
  O     -220.005     289.260     -15.367
  H     -218.443     288.272     -16.292
  H     -219.672     287.242     -15.522
  H     -220.052     288.066     -17.055
  P     -219.837     290.708     -16.040
  C     -221.968     290.249     -17.462
  O     -220.591     290.607     -17.454
  C     -222.816     291.514     -17.594
  O     -222.478     292.217     -18.813
  C     -224.314     291.243     -17.671
  O     -224.898     291.049     -16.394
  C     -224.800     292.532     -18.310
  O     -224.827     293.586     -17.327
  C     -223.698     292.802     -19.347
  N     -224.062     293.744     -24.372
  C     -223.708     294.529     -23.333
  N     -223.618     294.199     -22.022
  C     -223.922     292.905     -21.839
  C     -224.292     291.980     -22.809
  C     -224.365     292.447     -24.131
  N     -224.752     291.658     -25.192
  N     -224.547     290.745     -22.230
  C     -224.321     290.926     -20.943
  N     -223.970     292.219     -20.650
  O     -218.292     290.758     -16.459
  O     -220.252     291.872     -15.198
  H     -225.463     293.316     -16.636
  H     -218.027     291.676     -16.671
  H     -223.475     295.567     -23.575
  H     -224.402     290.157     -20.184
  H     -223.512     293.874     -19.502
  H     -225.814     292.449     -18.718
  H     -224.539     290.407     -18.344
  H     -222.580     292.180     -16.749
  H     -222.209     289.738     -16.526
  H     -224.917     292.118     -26.075
  H     -225.116     290.732     -25.002
  H     -222.165     289.575     -18.302
  P     -226.284     290.238     -16.329
  C     -224.933     288.012     -16.450
  O     -225.998     288.796     -16.987
  O     -227.183     290.972     -17.428
  O     -226.932     290.220     -14.983
  H     -228.124     290.954     -17.178
  H     -224.865     287.088     -16.985
  H     -225.123     287.812     -15.416
  H     -224.012     288.548     -16.546

 6  7  8  9  10  11  12  13  14  15  25  28  32  33  34  35 0
 6-311+G(2d,p)
 ****
 36  39  40 0
 6-311+G(2d,p)
 ****
 1  2  3  4  5  16  17  18  19  20  21  22  23  24 0
 3-21G
 ****
 26  27  29  30  31  37  38  41  42  43  44  45  46  47 0
 3-21G
 ****
 48 0
 3-21G
 ****


