%nproc=1
%NoSave
%Mem=1900MB
#P OB98/GEN NMR

erre ene a

0 1
  C      112.827      97.471     269.965
  O      113.932      98.289     269.641
  H      112.392      97.090     269.039
  H      112.066      98.049     270.495
  H      113.144      96.621     270.577
  P      114.752      98.980     270.837
  C      113.989     101.273     269.893
  O      114.044     100.412     271.022
  C      112.989     102.398     270.132
  O      111.646     101.886     270.280
  C      113.230     103.210     271.399
  O      114.338     104.093     271.317
  C      111.910     103.950     271.493
  O      111.882     105.017     270.527
  C      110.915     102.826     271.117
  N      110.363     102.145     272.288
  C      109.488     102.886     273.093
  O      109.217     104.054     272.813
  N      108.961     102.295     274.219
  C      109.298     101.079     274.528
  N      108.755     100.549     275.656
  C      110.233     100.272     273.721
  C      110.721     100.856     272.632
  O      116.239      99.015     270.677
  O      114.266      98.208     272.154
  H      110.983     105.394     270.546
  H      114.752      98.591     272.923
  H      110.506      99.275     274.042
  H      111.419     100.325     271.989
  H      110.086     103.220     270.515
  H      111.731     104.396     272.475
  H      113.322     102.552     272.276
  H      112.994     103.039     269.239
  H      108.119     101.126     276.192
  H      113.704     100.672     269.021
  H      109.019      99.641     276.018
  H      114.974     101.714     269.712
  P      114.755     104.867     272.661
  C      114.313     107.198     271.562
  O      114.013     106.287     272.609
  O      116.297     105.220     272.414
  O      114.537     104.107     273.931
  H      116.872     104.573     272.863
  H      113.730     108.087     271.685
  H      114.082     106.747     270.620
  H      115.353     107.447     271.593

 6  7  8  9  10  11  12  13  14  15  16  26  30  31  32  33  35 0
 6-311+G(2d,p)
 ****
 37  38 0
 6-311+G(2d,p)
 ****
 1  2  3  4  5  17  18  19  20  21  22  23  24  25 0
 3-21G
 ****
 27  28  29  34  36  39  40  41  42  43  44  45  46 0
 3-21G
 ****


