%nproc=1
%NoSave
%Mem=1900MB
#P OB98/GEN NMR

erre ene a

0 1
  C     -366.806     748.187    -353.719
  O     -365.859     748.617    -354.695
  P     -366.353     749.599    -355.857
  C     -367.243     748.978    -358.234
  O     -367.314     748.761    -356.824
  C     -367.504     747.677    -358.989
  O     -366.386     746.769    -358.787
  C     -368.774     746.946    -358.565
  O     -369.315     746.287    -359.724
  C     -368.249     745.889    -357.605
  O     -369.138     744.804    -357.399
  C     -366.941     745.518    -358.309
  N     -366.002     744.799    -357.435
  C     -366.337     743.514    -357.052
  O     -367.379     742.929    -357.395
  N     -365.472     742.893    -356.191
  C     -364.380     743.460    -355.623
  O     -363.705     742.903    -354.754
  C     -364.063     744.827    -356.060
  C     -364.869     745.438    -356.939
  O     -365.033     749.828    -356.745
  O     -366.930     750.899    -355.387
  H     -368.741     744.219    -356.732
  H     -364.624     750.675    -356.526
  H     -365.700     741.947    -355.902
  H     -363.165     745.304    -355.648
  H     -364.673     746.444    -357.264
  H     -367.153     744.911    -359.191
  H     -368.058     746.348    -356.623
  H     -369.534     747.584    -358.105
  H     -367.530     747.910    -360.060
  H     -366.256     749.353    -358.480
  H     -367.981     749.749    -358.518
  P     -370.629     746.917    -360.413
  C     -373.210     746.616    -360.057
  O     -371.887     746.363    -359.590
  O     -370.677     746.105    -361.780
  O     -370.547     748.406    -360.608
  H     -370.482     745.147    -361.665
  H     -373.253     746.615    -361.140
  H     -373.551     747.558    -359.670
  H     -373.854     745.819    -359.683
  H     -366.325     747.540    -353.016
  H     -367.602     747.660    -354.202
  H     -367.202     749.039    -353.207

 3  4  5  6  7  8  9  10  11  12  13  23  28  29  30  31  32 0
 6-311+G(2d,p)
 ****
 33  34 0
 6-311+G(2d,p)
 ****
 1  2  14  15  16  17  18  19  20  21  22  24  25  26 0
 3-21G
 ****
 27  35  36  37  38  39  40  41  42  43  44  45 0
 3-21G
 ****


