%nproc=1
%NoSave
%Mem=1900MB
#P OB98/GEN NMR

erre ene a

0 1
  C     -224.923    -292.454       6.861
  O     -226.301    -292.259       7.195
  P     -226.891    -290.775       7.017
  C     -227.121    -288.658       8.492
  O     -226.904    -290.061       8.459
  C     -227.298    -288.154       9.933
  O     -228.601    -288.534      10.457
  C     -226.251    -288.704      10.908
  O     -225.994    -287.686      11.887
  C     -226.975    -289.854      11.581
  O     -226.357    -290.213      12.815
  C     -228.380    -289.268      11.686
  N     -231.277    -291.689      15.122
  C     -230.360    -290.705      15.246
  N     -229.614    -290.128      14.280
  C     -229.927    -290.641      13.073
  C     -230.830    -291.650      12.793
  C     -231.528    -292.188      13.887
  N     -232.446    -293.209      13.767
  N     -230.837    -291.933      11.443
  C     -229.950    -291.113      10.920
  N     -229.394    -290.288      11.860
  O     -228.442    -291.032       6.709
  O     -226.240    -289.994       5.923
  H     -226.699    -291.092      13.082
  H     -228.629    -290.842       5.772
  H     -230.198    -290.338      16.256
  H     -229.668    -291.076       9.878
  H     -228.484    -288.567      12.524
  H     -226.964    -290.732      10.922
  H     -225.310    -289.012      10.440
  H     -227.255    -287.059       9.922
  H     -228.014    -288.401       7.915
  H     -232.881    -293.559      14.610
  H     -232.604    -293.621      12.861
  H     -226.286    -288.152       7.994
  P     -224.502    -287.102      11.937
  C     -222.543    -287.317      13.625
  O     -223.771    -287.838      13.160
  O     -224.701    -285.602      12.461
  O     -223.782    -287.148      10.628
  H     -223.962    -285.041      12.161
  H     -222.532    -287.372      14.719
  H     -222.394    -286.276      13.326
  H     -221.726    -287.923      13.235
  H     -224.658    -293.478       7.023
  H     -224.314    -291.826       7.478
  H     -224.766    -292.203       5.833

 3  4  5  6  7  8  9  10  11  12  22  25  29  30  31  32 0
 6-311+G(2d,p)
 ****
 33  36  37 0
 6-311+G(2d,p)
 ****
 1  2  13  14  15  16  17  18  19  20  21  23  24  26 0
 3-21G
 ****
 27  28  34  35  38  39  40  41  42  43  44  45  46  47  48 0
 3-21G
 ****


