%nproc=1
%NoSave
%Mem=1900MB
#P OB98/GEN NMR

erre ene a

0 1
  C     -235.610      -6.361     -97.014
  O     -236.077      -5.072     -97.361
  P     -235.244      -4.159     -98.379
  C     -233.017      -2.890     -98.212
  O     -234.204      -3.282     -97.532
  C     -232.586      -1.493     -97.775
  O     -232.304      -1.461     -96.357
  C     -231.312      -1.000     -98.442
  O     -231.522      -0.648     -99.796
  C     -230.934       0.158     -97.527
  O     -231.694       1.333     -97.848
  C     -231.351      -0.390     -96.145
  N     -230.213      -0.839     -95.359
  C     -229.853      -0.025     -94.279
  O     -230.430       1.043     -94.083
  N     -228.838      -0.446     -93.456
  C     -228.162      -1.511     -93.755
  N     -227.210      -1.909     -92.871
  C     -228.409      -2.306     -94.976
  C     -229.453      -1.930     -95.713
  O     -236.065      -3.385     -99.357
  O     -234.291      -5.198     -99.139
  H     -234.370      -5.052    -100.102
  H     -231.401       1.618     -98.736
  H     -227.775      -3.146     -95.214
  H     -229.722      -2.468     -96.614
  H     -231.890       0.379     -95.580
  H     -229.876       0.425     -97.608
  H     -230.541      -1.777     -98.383
  H     -233.417      -0.803     -97.976
  H     -227.081      -1.351     -92.036
  H     -233.212      -2.897     -99.288
  H     -226.865      -2.865     -92.835
  H     -232.226      -3.620     -98.003
  P     -230.260      -0.761    -100.780
  C     -227.879       0.256    -100.741
  O     -229.240       0.408    -100.389
  O     -230.850      -0.296    -102.194
  O     -229.661      -2.127    -100.865
  H     -230.440      -0.817    -102.908
  H     -227.403       1.240    -100.731
  H     -227.770      -0.179    -101.738
  H     -227.382      -0.383    -100.006
  H     -236.294      -6.816     -96.328
  H     -234.647      -6.280     -96.555
  H     -235.536      -6.963     -97.896

 3  4  5  6  7  8  9  10  11  12  13  24  27  28  29  30  32 0
 6-311+G(2d,p)
 ****
 34  35 0
 6-311+G(2d,p)
 ****
 1  2  14  15  16  17  18  19  20  21  22  23  25  26 0
 3-21G
 ****
 31  33  36  37  38  39  40  41  42  43  44  45  46 0
 3-21G
 ****


