%nproc=1
%NoSave
%Mem=1900MB
#P OB98/GEN NMR

erre ene a

0 1
  C      331.210    -643.914     447.413
  O      332.410    -643.462     446.818
  P      332.703    -643.571     445.252
  C      332.250    -645.652     443.777
  O      332.944    -645.122     444.886
  C      332.033    -647.172     443.865
  O      330.921    -647.438     444.751
  C      331.634    -647.745     442.502
  O      332.638    -648.061     441.550
  C      330.656    -648.867     442.797
  O      331.274    -650.150     442.791
  C      330.143    -648.522     444.204
  N      325.362    -650.110     443.595
  C      326.524    -650.861     443.726
  N      326.392    -652.185     443.494
  N      327.685    -650.344     444.055
  C      327.665    -648.987     444.175
  C      326.579    -648.145     444.074
  C      325.298    -648.731     443.758
  O      324.266    -648.094     443.532
  N      326.951    -646.827     444.169
  C      328.260    -646.875     444.307
  N      328.742    -648.163     444.263
  O      333.634    -642.552     444.678
  O      331.240    -643.297     444.627
  H      331.765    -650.252     441.953
  H      331.360    -642.813     443.787
  H      324.516    -650.542     443.265
  H      328.919    -646.009     444.382
  H      330.287    -649.386     444.886
  H      329.862    -648.899     442.044
  H      325.568    -652.585     443.099
  H      331.040    -646.965     441.989
  H      327.250    -652.729     443.421
  H      332.895    -647.672     444.317
  H      332.833    -645.411     442.872
  H      331.277    -645.162     443.665
  P      332.424    -648.308     439.982
  C      331.584    -650.215     438.488
  O      332.133    -649.869     439.752
  O      333.876    -648.124     439.346
  O      331.448    -647.377     439.330
  H      333.805    -647.904     438.392
  H      331.154    -651.220     438.551
  H      332.366    -650.217     437.733
  H      330.796    -649.498     438.198
  H      331.245    -643.735     448.467
  H      331.095    -644.962     447.233
  H      330.381    -643.386     446.989

 3  4  5  6  7  8  9  10  11  12  23  26  30  31 0
 6-311+G(2d,p)
 ****
 33  35  36  37  38 0
 6-311+G(2d,p)
 ****
 1  2  13  14  15  16  17  18  19  20  21  22  24  25 0
 3-21G
 ****
 27  28  29  32  34  39  40  41  42  43  44  45  46  47  48  49 0
 3-21G
 ****


