%nproc=1
%NoSave
%Mem=1900MB
#P OB98/GEN NMR

erre ene a

0 1
  C      -68.347     -27.123      73.658
  O      -69.661     -27.598      73.417
  P      -70.564     -28.156      74.611
  C      -73.065     -28.920      74.857
  O      -72.066     -28.282      74.090
  C      -74.275     -29.205      73.959
  O      -74.737     -27.985      73.344
  C      -73.929     -30.192      72.847
  O      -74.264     -31.516      73.231
  C      -74.746     -29.675      71.679
  O      -76.109     -30.131      71.777
  C      -74.675     -28.146      71.901
  N      -73.484     -27.427      71.412
  C      -73.275     -27.290      70.043
  O      -74.049     -27.712      69.189
  N      -72.111     -26.661      69.678
  C      -71.189     -26.132      70.534
  O      -70.056     -25.795      70.211
  C      -71.596     -26.066      71.940
  C      -72.694     -26.725      72.313
  O      -70.627     -26.920      75.624
  O      -70.061     -29.397      75.272
  H      -76.386     -30.006      72.702
  H      -69.982     -27.034      76.347
  H      -71.886     -26.682      68.689
  H      -70.962     -25.531      72.635
  H      -72.995     -26.723      73.358
  H      -75.552     -27.647      71.473
  H      -74.367     -30.056      70.733
  H      -72.864     -30.116      72.590
  H      -75.090     -29.600      74.578
  H      -73.355     -28.282      75.699
  H      -72.676     -29.853      75.277
  P      -73.583     -32.754      72.479
  C      -72.844     -35.093      73.223
  O      -73.187     -33.786      73.641
  O      -72.485     -32.406      71.529
  O      -74.816     -33.454      71.733
  H      -74.847     -33.163      70.798
  H      -72.427     -35.635      74.074
  H      -72.099     -35.057      72.423
  H      -73.739     -35.615      72.875
  H      -67.912     -26.795      72.737
  H      -67.753     -27.911      74.073
  H      -68.384     -26.305      74.346

 3  4  5  6  7  8  9  10  11  12  13  23  28  29  30  31  32 0
 6-311+G(2d,p)
 ****
 33  34 0
 6-311+G(2d,p)
 ****
 1  2  14  15  16  17  18  19  20  21  22  24  25  26  27 0
 3-21G
 ****
 35  36  37  38  39  40  41  42  43  44  45 0
 3-21G
 ****


