%nproc=1
%NoSave
%Mem=1900MB
#P OB98/GEN NMR

erre ene a

0 1
  C      263.943    -225.924    -185.049
  O      262.802    -225.931    -185.919
  P      262.787    -224.889    -187.138
  C      265.026    -225.664    -188.212
  O      263.618    -225.518    -188.364
  C      265.691    -226.094    -189.532
  O      265.237    -227.414    -189.934
  C      265.383    -225.151    -190.706
  O      266.507    -225.168    -191.599
  C      264.206    -225.832    -191.375
  O      264.032    -225.370    -192.721
  C      264.613    -227.296    -191.234
  N      260.847    -228.791    -194.238
  C      261.809    -227.809    -194.432
  N      261.773    -227.165    -195.614
  N      262.716    -227.502    -193.542
  C      262.640    -228.267    -192.421
  C      261.740    -229.254    -192.106
  C      260.727    -229.571    -193.089
  O      259.838    -230.421    -192.977
  N      261.981    -229.783    -190.865
  C      263.023    -229.100    -190.419
  N      263.484    -228.201    -191.342
  O      263.747    -223.710    -186.609
  O      261.428    -224.373    -187.478
  H      263.488    -226.041    -193.190
  H      263.203    -222.922    -186.394
  H      260.161    -228.982    -194.953
  H      263.481    -229.228    -189.447
  H      265.352    -227.603    -191.990
  H      263.287    -225.616    -190.820
  H      261.132    -227.385    -196.363
  H      265.171    -224.114    -190.420
  H      262.491    -226.464    -195.792
  H      266.773    -226.148    -189.371
  H      265.246    -226.405    -187.438
  H      265.444    -224.719    -187.847
  P      267.444    -223.870    -191.619
  C      269.342    -224.048    -189.857
  O      268.899    -224.364    -191.159
  O      266.925    -223.008    -190.366
  O      267.403    -223.086    -192.891
  H      267.123    -222.067    -190.498
  H      269.258    -224.935    -189.218
  H      268.761    -223.230    -189.411
  H      270.393    -223.730    -189.903
  H      263.816    -226.665    -184.288
  H      264.040    -224.960    -184.595
  H      264.825    -226.142    -185.615

 3  4  5  6  7  8  9  10  11  12  23  26  30  31 0
 6-311+G(2d,p)
 ****
 33  35  36  37  38 0
 6-311+G(2d,p)
 ****
 1  2  13  14  15  16  17  18  19  20  21  22  24  25 0
 3-21G
 ****
 27  28  29  32  34  39  40  41  42  43  44  45  46  47  48  49 0
 3-21G
 ****


