%nproc=1
%NoSave
%Mem=1900MB
#P OB98/GEN NMR

erre ene a

0 1
  C      489.676    -414.828     -15.118
  O      490.911    -415.126     -15.739
  H      489.290    -413.896     -15.541
  H      489.820    -414.693     -14.044
  H      488.951    -415.628     -15.302
  P      491.566    -416.553     -15.388
  C      492.642    -415.816     -13.107
  O      491.675    -416.597     -13.789
  C      492.759    -416.257     -11.646
  O      491.429    -416.256     -11.058
  C      493.350    -417.656     -11.469
  O      494.141    -417.668     -10.280
  C      492.120    -418.532     -11.262
  O      492.434    -419.740     -10.573
  C      491.190    -417.572     -10.504
  N      489.788    -417.956     -10.615
  C      488.896    -417.335      -9.739
  O      489.303    -416.526      -8.905
  N      487.566    -417.680      -9.781
  C      487.172    -418.614     -10.591
  N      485.847    -418.929     -10.575
  C      488.083    -419.323     -11.511
  C      489.363    -418.940     -11.474
  O      493.078    -416.341     -15.869
  O      490.877    -417.716     -16.013
  H      493.013    -420.286     -11.147
  H      493.455    -415.487     -15.597
  H      487.712    -420.102     -12.163
  H      490.103    -419.404     -12.122
  H      491.457    -417.537      -9.440
  H      491.685    -418.800     -12.232
  H      493.957    -417.970     -12.318
  H      493.347    -415.508     -11.103
  H      485.263    -418.431      -9.912
  H      492.371    -414.758     -13.148
  H      485.440    -419.671     -11.122
  H      493.599    -415.945     -13.620
  P      495.738    -417.670     -10.397
  C      496.326    -419.492      -8.659
  O      496.296    -419.126     -10.034
  O      496.436    -416.533      -9.723
  O      495.968    -417.595     -11.987
  H      496.717    -416.981     -12.150
  H      496.719    -420.483      -8.562
  H      495.334    -419.461      -8.260
  H      496.948    -418.808      -8.121

 6  7  8  9  10  11  12  13  14  15  16  26  30  31  32  33  35 0
 6-311+G(2d,p)
 ****
 37  38 0
 6-311+G(2d,p)
 ****
 1  2  3  4  5  17  18  19  20  21  22  23  24  25 0
 3-21G
 ****
 27  28  29  34  36  39  40  41  42  43  44  45  46 0
 3-21G
 ****


