%nproc=1
%NoSave
%Mem=1900MB
#P OB98/GEN NMR

erre ene a

0 1
  C     -220.497    -247.718      -0.038
  O     -219.987    -246.563      -0.676
  H     -219.776    -248.530      -0.157
  H     -221.438    -248.010      -0.510
  H     -220.653    -247.536       1.030
  P     -220.725    -245.173      -0.368
  C     -222.118    -243.461      -1.726
  O     -221.454    -244.716      -1.727
  C     -223.155    -243.410      -2.851
  O     -222.457    -243.400      -4.127
  C     -224.123    -244.601      -2.859
  O     -225.427    -244.132      -3.220
  C     -223.577    -245.495      -3.957
  O     -224.577    -246.339      -4.525
  C     -223.006    -244.467      -4.927
  N     -222.244    -247.456      -8.914
  C     -223.419    -246.987      -8.360
  N     -224.567    -247.377      -8.955
  N     -223.465    -246.202      -7.318
  C     -222.240    -245.862      -6.846
  C     -221.005    -246.268      -7.300
  C     -220.969    -247.158      -8.440
  O     -219.960    -247.627      -8.959
  N     -219.996    -245.732      -6.534
  C     -220.622    -245.011      -5.625
  N     -221.982    -245.053      -5.776
  O     -219.509    -244.139      -0.228
  O     -221.592    -245.163       0.847
  H     -224.866    -246.964      -3.827
  H     -219.475    -243.793       0.683
  H     -222.263    -248.070      -9.711
  H     -220.143    -244.449      -4.832
  H     -223.772    -244.044      -5.587
  H     -222.785    -246.135      -3.551
  H     -224.602    -247.942      -9.791
  H     -224.175    -245.112      -1.896
  H     -225.442    -247.017      -8.592
  H     -223.698    -242.459      -2.782
  H     -221.379    -242.667      -1.875
  H     -222.613    -243.312      -0.760
  P     -226.644    -244.549      -2.258
  C     -228.402    -246.450      -2.194
  O     -227.137    -246.022      -2.677
  O     -227.837    -243.598      -2.744
  O     -226.354    -244.362      -0.804
  H     -228.004    -242.908      -2.076
  H     -228.602    -247.440      -2.547
  H     -229.162    -245.785      -2.547
  H     -228.395    -246.447      -1.124

 6  7  8  9  10  11  12  13  14  15  26  29  33  34 0
 6-311+G(2d,p)
 ****
 36  38  39  40  41 0
 6-311+G(2d,p)
 ****
 1  2  3  4  5  16  17  18  19  20  21  22  23  24  25 0
 3-21G
 ****
 27  28  30  31  32  35  37  42  43  44  45  46  47 0
 3-21G
 ****
 48  49 0
 3-21G
 ****


