%nproc=1
%NoSave
%Mem=1900MB
#P OB98/GEN NMR

erre ene a

0 1
  C      -18.573    -565.038     -74.321
  O      -18.915    -564.526     -75.593
  H      -18.950    -566.062     -74.242
  H      -19.028    -564.434     -73.532
  H      -17.487    -565.051     -74.201
  P      -18.547    -562.986     -75.868
  C      -20.449    -562.310     -74.215
  O      -19.911    -562.208     -75.526
  C      -21.434    -561.174     -73.964
  O      -20.737    -559.913     -73.830
  C      -22.448    -560.953     -75.086
  O      -23.505    -561.895     -75.082
  C      -22.929    -559.558     -74.731
  O      -23.810    -559.627     -73.594
  C      -21.596    -558.874     -74.366
  N      -20.959    -558.212     -75.508
  C      -21.726    -557.266     -76.197
  O      -22.876    -557.013     -75.845
  N      -21.179    -556.644     -77.295
  C      -19.967    -556.926     -77.665
  N      -19.483    -556.281     -78.758
  C      -19.117    -557.905     -76.962
  C      -19.671    -558.504     -75.905
  O      -18.484    -562.898     -77.464
  O      -17.336    -562.468     -75.169
  H      -24.032    -558.709     -73.361
  H      -18.407    -561.953     -77.747
  H      -18.120    -558.115     -77.313
  H      -19.108    -559.234     -75.338
  H      -21.742    -558.128     -73.572
  H      -23.484    -559.076     -75.534
  H      -21.957    -560.919     -76.068
  H      -21.936    -561.370     -73.007
  H      -20.109    -555.656     -79.254
  H      -19.622    -562.256     -73.499
  H      -18.614    -556.539     -79.209
  H      -20.962    -563.270     -74.093
  P      -23.681    -562.811     -76.390
  C      -25.864    -561.658     -77.220
  O      -25.251    -562.841     -76.724
  O      -23.390    -564.286     -75.845
  O      -22.789    -562.450     -77.535
  H      -22.949    -564.830     -76.529
  H      -26.904    -561.840     -77.392
  H      -25.396    -561.372     -78.139
  H      -25.753    -560.871     -76.503

 6  7  8  9  10  11  12  13  14  15  16  26  30  31  32  33  35 0
 6-311+G(2d,p)
 ****
 37  38 0
 6-311+G(2d,p)
 ****
 1  2  3  4  5  17  18  19  20  21  22  23  24  25 0
 3-21G
 ****
 27  28  29  34  36  39  40  41  42  43  44  45  46 0
 3-21G
 ****


