%nproc=1
%NoSave
%Mem=1900MB
#P OB98/GEN NMR

erre ene a

0 1
  C      201.546    -490.221    -413.136
  O      202.687    -491.048    -413.269
  H      201.518    -489.826    -412.115
  H      200.642    -490.805    -413.314
  H      201.597    -489.384    -413.840
  P      202.971    -491.665    -414.723
  C      205.355    -491.615    -415.743
  O      204.510    -492.131    -414.725
  C      206.700    -492.341    -415.748
  O      207.466    -491.940    -414.568
  C      206.594    -493.873    -415.724
  O      207.669    -494.413    -416.506
  C      206.850    -494.209    -414.262
  O      207.286    -495.560    -414.079
  C      207.906    -493.155    -413.930
  N      211.158    -493.696    -410.122
  C      211.315    -493.916    -411.479
  N      212.531    -494.357    -411.887
  N      210.370    -493.737    -412.360
  C      209.212    -493.263    -411.818
  C      208.931    -493.003    -410.493
  C      209.985    -493.250    -409.527
  O      209.895    -493.086    -408.311
  N      207.637    -492.567    -410.347
  C      207.144    -492.563    -411.571
  N      208.066    -492.977    -412.497
  O      202.971    -490.363    -415.661
  O      201.989    -492.689    -415.190
  H      206.574    -496.152    -414.406
  H      202.085    -490.220    -416.039
  H      211.918    -493.867    -409.487
  H      206.138    -492.267    -411.843
  H      208.895    -493.412    -414.328
  H      205.943    -494.060    -413.672
  H      213.322    -494.481    -411.273
  H      205.635    -494.265    -416.094
  H      212.678    -494.491    -412.881
  H      207.276    -492.007    -416.625
  H      205.528    -490.548    -415.557
  H      204.864    -491.726    -416.718
  P      207.382    -494.770    -418.044
  C      208.931    -494.718    -420.136
  O      208.786    -495.056    -418.761
  O      206.944    -493.356    -418.660
  O      206.327    -495.811    -418.245
  H      206.351    -493.497    -419.425
  H      209.918    -494.969    -420.463
  H      208.769    -493.668    -420.264
  H      208.214    -495.263    -420.715

 6  7  8  9  10  11  12  13  14  15  26  29  33  34 0
 6-311+G(2d,p)
 ****
 36  38  39  40  41 0
 6-311+G(2d,p)
 ****
 1  2  3  4  5  16  17  18  19  20  21  22  23  24  25 0
 3-21G
 ****
 27  28  30  31  32  35  37  42  43  44  45  46  47 0
 3-21G
 ****
 48  49 0
 3-21G
 ****


