%nproc=1
%NoSave
%Mem=1900MB
#P OB98/GEN NMR

erre ene a

0 1
  C      196.626     -91.919      29.141
  O      196.606     -93.275      28.746
  P      197.099     -94.444      29.729
  C      199.439     -93.375      29.717
  O      198.684     -94.559      29.505
  C      200.843     -93.494      29.119
  O      201.537     -92.223      29.253
  C      201.724     -94.572      29.767
  O      202.553     -95.093      28.723
  C      202.551     -93.769      30.753
  O      203.732     -94.450      31.161
  C      202.772     -92.476      29.957
  N      203.154     -91.362      30.817
  C      204.506     -91.266      31.156
  O      205.302     -92.139      30.797
  N      204.920     -90.217      31.939
  C      204.041     -89.397      32.428
  N      204.509     -88.374      33.191
  C      202.591     -89.539      32.197
  C      202.222     -90.522      31.380
  O      196.352     -95.728      29.611
  O      197.005     -93.780      31.181
  H      204.320     -94.544      30.380
  H      196.064     -93.757      31.489
  H      201.893     -88.864      32.670
  H      201.180     -90.704      31.152
  H      203.558     -92.616      29.202
  H      201.958     -93.564      31.652
  H      201.158     -95.372      30.246
  H      200.735     -93.694      28.046
  H      205.513     -88.306      33.311
  H      199.529     -93.222      30.798
  H      203.922     -87.638      33.549
  H      198.909     -92.514      29.301
  P      202.339     -96.574      28.152
  C      202.988     -97.729      30.341
  O      203.312     -97.540      28.976
  O      202.439     -96.701      26.665
  O      200.882     -96.995      28.671
  H      200.567     -97.769      28.166
  H      203.530     -98.600      30.719
  H      201.914     -97.896      30.470
  H      203.289     -96.846      30.914
  H      196.259     -91.309      28.342
  H      197.629     -91.631      29.377
  H      196.005     -91.789      30.003

 3  4  5  6  7  8  9  10  11  12  13  23  27  28  29  30  32 0
 6-311+G(2d,p)
 ****
 34  35 0
 6-311+G(2d,p)
 ****
 1  2  14  15  16  17  18  19  20  21  22  24  25  26 0
 3-21G
 ****
 31  33  36  37  38  39  40  41  42  43  44  45  46 0
 3-21G
 ****


