%nproc=1
%NoSave
%Mem=1900MB
#P OB98/GEN NMR

erre ene a

0 1
  C      185.955     328.288    -656.441
  O      186.735     329.293    -657.067
  P      188.338     329.332    -656.916
  C      188.649     331.861    -656.483
  O      188.776     330.798    -657.406
  C      188.088     333.107    -657.184
  O      189.025     333.516    -658.215
  C      186.724     332.900    -657.852
  O      185.993     334.133    -657.725
  C      187.098     332.640    -659.299
  O      186.017     332.906    -660.186
  C      188.300     333.570    -659.466
  N      189.152     333.196    -660.591
  C      188.590     333.230    -661.871
  O      187.415     333.539    -662.032
  N      189.385     332.907    -662.941
  C      190.602     332.505    -662.742
  N      191.363     332.256    -663.843
  C      191.197     332.354    -661.399
  C      190.426     332.735    -660.388
  O      189.054     328.209    -657.583
  O      188.574     329.419    -655.336
  H      185.261     332.334    -659.944
  H      188.580     328.537    -654.891
  H      192.208     331.986    -661.288
  H      190.796     332.681    -659.366
  H      187.959     334.616    -659.576
  H      187.385     331.594    -659.422
  H      186.146     332.089    -657.392
  H      188.037     333.924    -656.449
  H      190.984     332.537    -664.737
  H      189.641     332.100    -656.086
  H      192.385     332.256    -663.790
  H      188.007     331.563    -655.647
  P      184.394     334.050    -657.589
  C      184.092     334.891    -660.021
  O      183.756     335.053    -658.671
  O      184.151     334.844    -656.206
  O      183.794     332.687    -657.495
  H      183.318     334.539    -655.810
  H      183.572     335.647    -660.605
  H      183.796     333.910    -660.384
  H      185.176     335.027    -660.165
  H      184.921     328.446    -656.668
  H      186.098     328.333    -655.382
  H      186.257     327.327    -656.801

 3  4  5  6  7  8  9  10  11  12  13  23  27  28  29  30  32 0
 6-311+G(2d,p)
 ****
 34  35 0
 6-311+G(2d,p)
 ****
 1  2  14  15  16  17  18  19  20  21  22  24  25  26 0
 3-21G
 ****
 31  33  36  37  38  39  40  41  42  43  44  45  46 0
 3-21G
 ****


