%nproc=1
%NoSave
%Mem=1900MB
#P OB98/GEN NMR

erre ene a

0 1
  C     -152.232      -9.967     171.453
  O     -152.114      -8.615     171.863
  P     -150.779      -8.080     172.577
  C     -151.877      -6.196     173.963
  O     -151.052      -6.525     172.854
  C     -151.898      -4.683     174.163
  O     -150.574      -4.221     174.500
  C     -152.312      -3.889     172.931
  O     -153.715      -3.949     172.732
  C     -151.756      -2.512     173.274
  O     -152.633      -1.832     174.183
  C     -150.437      -2.873     173.991
  N     -149.270      -2.755     173.125
  C     -148.842      -1.457     172.829
  O     -149.423      -0.476     173.292
  N     -147.732      -1.295     172.039
  C     -147.118      -2.334     171.563
  N     -145.985      -2.115     170.842
  C     -147.569      -3.716     171.803
  C     -148.635      -3.852     172.587
  O     -149.516      -8.369     171.839
  O     -150.828      -8.707     174.043
  H     -153.371      -1.477     173.650
  H     -150.412      -9.602     174.105
  H     -147.032      -4.550     171.374
  H     -149.017      -4.835     172.829
  H     -150.295      -2.230     174.867
  H     -151.614      -1.869     172.400
  H     -151.808      -4.279     172.038
  H     -152.565      -4.457     175.006
  H     -145.617      -1.170     170.850
  H     -151.461      -6.670     174.859
  H     -145.307      -2.851     170.687
  H     -152.884      -6.586     173.793
  P     -154.244      -4.161     171.234
  C     -156.181      -2.518     171.758
  O     -155.807      -3.791     171.263
  O     -154.213      -5.750     171.054
  O     -153.441      -3.458     170.192
  H     -153.426      -6.018     170.544
  H     -157.226      -2.338     171.494
  H     -155.563      -1.732     171.316
  H     -156.087      -2.501     172.848
  H     -153.190     -10.121     171.002
  H     -152.132     -10.608     172.304
  H     -151.463     -10.193     170.744

 3  4  5  6  7  8  9  10  11  12  13  23  27  28  29  30  32 0
 6-311+G(2d,p)
 ****
 34  35 0
 6-311+G(2d,p)
 ****
 1  2  14  15  16  17  18  19  20  21  22  24  25  26 0
 3-21G
 ****
 31  33  36  37  38  39  40  41  42  43  44  45  46 0
 3-21G
 ****


