%nproc=1
%NoSave
%Mem=1900MB
#P OB98/GEN NMR

erre ene a

0 1
  C        3.311     140.734    -234.866
  O        2.431     140.997    -233.791
  H        3.470     141.642    -235.452
  H        4.271     140.400    -234.462
  H        2.903     139.945    -235.504
  P        0.965     141.518    -234.185
  C        1.268     143.917    -233.263
  O        1.086     143.105    -234.414
  C        1.268     145.392    -233.658
  O        1.387     146.185    -232.447
  C        2.416     145.788    -234.602
  O        1.912     146.516    -235.729
  C        3.277     146.721    -233.769
  O        3.874     147.759    -234.537
  C        2.288     147.259    -232.743
  N        3.529     151.394    -230.030
  C        2.569     151.191    -230.958
  N        2.227     150.041    -231.573
  C        2.971     149.018    -231.117
  C        3.969     149.067    -230.158
  C        4.257     150.331    -229.615
  N        5.272     150.548    -228.710
  N        4.517     147.814    -229.954
  C        3.890     147.031    -230.810
  N        2.959     147.717    -231.545
  O        0.151     141.394    -232.810
  O        0.308     140.752    -235.282
  H        3.161     148.201    -235.033
  H       -0.589     140.772    -232.938
  H        2.004     152.071    -231.252
  H        4.102     145.981    -230.971
  H        1.697     148.093    -233.146
  H        4.073     146.139    -233.291
  H        2.988     144.924    -234.955
  H        0.300     145.635    -234.110
  H        2.226     143.674    -232.790
  H        5.484     151.500    -228.463
  H        5.887     149.780    -228.484
  H        0.463     143.712    -232.550
  P        2.431     146.034    -237.175
  C        3.567     148.228    -237.977
  O        3.744     146.886    -237.541
  O        1.311     146.598    -238.169
  O        2.576     144.554    -237.298
  H        0.936     145.866    -238.696
  H        4.522     148.665    -238.182
  H        3.075     148.790    -237.211
  H        2.971     148.239    -238.866

 6  7  8  9  10  11  12  13  14  15  25  28  32  33  34  35 0
 6-311+G(2d,p)
 ****
 36  39  40 0
 6-311+G(2d,p)
 ****
 1  2  3  4  5  16  17  18  19  20  21  22  23  24 0
 3-21G
 ****
 26  27  29  30  31  37  38  41  42  43  44  45  46  47  48 0
 3-21G
 ****


