%nproc=1
%NoSave
%Mem=1900MB
#P OB98/GEN NMR

erre ene a

0 1
  C     -347.585     377.250     -35.759
  O     -347.515     375.854     -35.948
  H     -346.908     377.730     -36.475
  H     -347.263     377.520     -34.747
  H     -348.597     377.614     -35.940
  P     -348.265     374.888     -34.904
  C     -346.128     373.753     -34.047
  O     -347.320     373.580     -34.802
  C     -344.935     373.065     -34.717
  O     -345.087     371.624     -34.628
  C     -344.767     373.425     -36.201
  O     -343.397     373.737     -36.466
  C     -345.168     372.146     -36.927
  O     -344.584     372.062     -38.226
  C     -344.726     371.082     -35.916
  N     -345.347     369.782     -36.152
  C     -344.513     368.767     -36.623
  O     -343.320     368.996     -36.858
  N     -345.047     367.522     -36.860
  C     -346.312     367.323     -36.689
  N     -346.785     366.075     -36.949
  C     -347.246     368.383     -36.236
  C     -346.698     369.573     -35.983
  O     -349.694     374.605     -35.228
  O     -348.053     375.594     -33.484
  H     -344.883     371.231     -38.647
  H     -348.732     375.254     -32.842
  H     -348.296     368.176     -36.123
  H     -347.307     370.408     -35.638
  H     -343.632     370.951     -35.939
  H     -346.263     372.118     -37.043
  H     -345.376     374.270     -36.517
  H     -344.028     373.309     -34.145
  H     -346.115     365.377     -37.254
  H     -346.289     373.341     -33.040
  H     -347.760     365.811     -36.856
  H     -345.920     374.826     -33.968
  P     -342.993     375.292     -36.372
  C     -343.384     375.710     -38.906
  O     -342.463     375.756     -37.816
  O     -341.675     375.270     -35.469
  O     -344.063     376.147     -35.782
  H     -341.891     375.524     -34.548
  H     -342.897     376.044     -39.798
  H     -344.218     376.346     -38.695
  H     -343.726     374.705     -39.042

 6  7  8  9  10  11  12  13  14  15  16  26  30  31  32  33  35 0
 6-311+G(2d,p)
 ****
 37  38 0
 6-311+G(2d,p)
 ****
 1  2  3  4  5  17  18  19  20  21  22  23  24  25 0
 3-21G
 ****
 27  28  29  34  36  39  40  41  42  43  44  45  46 0
 3-21G
 ****


