%nproc=1
%NoSave
%Mem=1900MB
#P OB98/GEN NMR

erre ene a

0 1
  C       77.535     399.194     577.289
  O       77.832     398.745     575.980
  H       76.879     400.067     577.221
  H       78.452     399.484     577.810
  H       77.015     398.414     577.854
  P       78.788     397.472     575.815
  C       80.863     398.892     575.204
  O       80.271     397.986     576.135
  C       82.377     398.793     575.266
  O       82.855     399.154     576.583
  C       82.923     397.391     574.982
  O       82.968     397.152     573.586
  C       84.300     397.486     575.617
  O       85.175     398.240     574.762
  C       83.989     398.298     576.893
  N       84.411     397.827     581.931
  C       84.967     398.771     581.079
  N       85.789     399.682     581.640
  N       84.756     398.795     579.781
  C       83.973     397.771     579.357
  C       83.381     396.773     580.103
  C       83.579     396.792     581.539
  O       83.095     395.996     582.336
  N       82.713     395.876     579.309
  C       82.864     396.346     578.082
  N       83.638     397.489     578.055
  O       78.677     396.722     574.518
  O       78.432     396.553     577.075
  H       85.666     397.594     574.221
  H       77.741     395.903     576.854
  H       84.631     397.859     582.915
  H       82.442     395.907     577.188
  H       84.823     398.944     577.192
  H       84.760     396.521     575.800
  H       86.204     399.547     582.551
  H       82.341     396.616     575.510
  H       86.241     400.348     581.020
  H       82.799     399.526     574.564
  H       80.529     399.900     575.483
  H       80.513     398.675     574.191
  P       83.285     395.681     572.997
  C       85.775     395.596     572.280
  O       84.834     395.433     573.342
  O       82.920     395.487     571.570
  O       82.541     394.682     573.999
  H       81.602     394.498     573.755
  H       86.762     395.402     572.645
  H       85.723     396.598     571.908
  H       85.545     394.910     571.492

 6  7  8  9  10  11  12  13  14  15  26  29  33  34 0
 6-311+G(2d,p)
 ****
 36  38  39  40  41 0
 6-311+G(2d,p)
 ****
 1  2  3  4  5  16  17  18  19  20  21  22  23  24  25 0
 3-21G
 ****
 27  28  30  31  32  35  37  42  43  44  45  46  47 0
 3-21G
 ****
 48  49 0
 3-21G
 ****


