%nproc=1
%NoSave
%Mem=1900MB
#P OB98/GEN NMR

erre ene a

0 1
  C     -502.707     461.920    -104.204
  O     -501.561     462.626    -104.655
  P     -501.067     463.884    -103.773
  C     -498.582     463.748    -104.628
  O     -499.496     463.665    -103.545
  C     -497.230     463.143    -104.225
  O     -497.426     461.837    -103.660
  C     -496.252     462.946    -105.380
  O     -495.651     464.164    -105.776
  C     -495.302     461.918    -104.793
  O     -494.344     462.571    -103.928
  C     -496.256     461.042    -103.963
  N     -496.607     459.787    -104.624
  C     -495.585     458.859    -104.795
  O     -494.433     459.061    -104.431
  N     -495.939     457.698    -105.443
  C     -497.162     457.405    -105.964
  O     -497.413     456.371    -106.575
  C     -498.204     458.430    -105.781
  C     -497.882     459.560    -105.123
  O     -501.736     463.532    -102.369
  O     -501.458     465.196    -104.361
  H     -501.860     462.570    -102.249
  H     -493.645     461.904    -103.750
  H     -495.216     457.002    -105.557
  H     -499.183     458.251    -106.188
  H     -498.627     460.329    -104.990
  H     -495.801     460.786    -102.986
  H     -494.735     461.374    -105.559
  H     -496.780     462.507    -106.245
  H     -496.783     463.780    -103.451
  H     -498.445     464.800    -104.888
  H     -498.996     463.211    -105.489
  P     -495.328     464.348    -107.341
  C     -496.996     466.267    -107.967
  O     -496.683     464.885    -108.014
  O     -495.231     462.821    -107.810
  O     -494.101     465.153    -107.608
  H     -495.926     462.257    -107.417
  H     -497.719     466.483    -108.752
  H     -496.121     466.889    -108.113
  H     -497.450     466.502    -106.985
  H     -502.920     461.117    -104.879
  H     -503.544     462.586    -104.166
  H     -502.521     461.525    -103.227

 3  4  5  6  7  8  9  10  11  12  13  24  28  29  30  31  32 0
 6-311+G(2d,p)
 ****
 33  34 0
 6-311+G(2d,p)
 ****
 1  2  14  15  16  17  18  19  20  21  22  23  25  26  27 0
 3-21G
 ****
 35  36  37  38  39  40  41  42  43  44  45 0
 3-21G
 ****


