%nproc=1
%NoSave
%Mem=1900MB
#P OB98/GEN NMR

erre ene a

0 1
  C      132.175     118.074     127.686
  O      132.020     117.222     128.802
  H      131.308     117.952     127.032
  H      133.076     117.813     127.126
  H      132.225     119.119     128.008
  P      133.194     117.159     129.891
  C      133.965     118.689     131.821
  O      133.255     118.603     130.589
  C      133.835     120.100     132.406
  O      134.500     121.016     131.501
  C      132.372     120.543     132.552
  O      132.054     120.999     133.865
  C      132.186     121.524     131.400
  O      131.181     122.494     131.607
  C      133.595     122.094     131.201
  N      133.839     122.614     129.858
  C      133.457     123.928     129.603
  O      132.954     124.691     130.423
  N      133.686     124.371     128.325
  C      134.234     123.650     127.309
  O      134.420     124.103     126.187
  C      134.596     122.262     127.634
  C      134.383     121.814     128.874
  O      134.506     116.648     129.398
  O      132.598     116.226     131.048
  H      131.450     123.307     131.132
  H      132.986     115.334     130.980
  H      133.424     125.325     128.132
  H      135.024     121.656     126.848
  H      134.640     120.795     129.149
  H      133.784     122.902     131.908
  H      131.903     120.953     130.507
  H      131.691     119.696     132.409
  H      134.366     120.135     133.363
  H      135.015     118.456     131.621
  H      133.565     117.956     132.529
  P      131.648     120.050     135.083
  C      132.861     117.992     136.160
  O      132.961     119.281     135.575
  O      130.420     119.229     134.878
  O      131.345     121.091     136.278
  H      130.639     120.689     136.824
  H      133.838     117.643     136.423
  H      132.417     117.316     135.459
  H      132.253     118.045     137.039

 6  7  8  9  10  11  12  13  14  15  16  26  31  32  33  34  35 0
 6-311+G(2d,p)
 ****
 36  37 0
 6-311+G(2d,p)
 ****
 1  2  3  4  5  17  18  19  20  21  22  23  24  25 0
 3-21G
 ****
 27  28  29  30  38  39  40  41  42  43  44  45 0
 3-21G
 ****


