%nproc=1
%NoSave
%Mem=1900MB
#P OB98/GEN NMR

erre ene a

0 1
  C      608.548    -172.298    -246.092
  O      607.786    -173.481    -246.176
  H      609.595    -172.533    -246.321
  H      608.495    -171.867    -245.085
  H      608.184    -171.563    -246.823
  P      606.271    -173.451    -245.643
  C      605.170    -172.584    -243.465
  O      606.374    -173.027    -244.095
  C      605.190    -172.861    -241.962
  O      604.947    -174.268    -241.710
  C      606.540    -172.575    -241.313
  O      606.863    -171.195    -241.244
  C      606.466    -173.382    -240.022
  O      605.822    -172.700    -238.948
  C      605.597    -174.597    -240.464
  N      606.386    -175.822    -240.565
  C      606.728    -176.414    -239.358
  O      606.431    -175.947    -238.256
  N      607.482    -177.561    -239.452
  C      607.938    -178.114    -240.606
  O      608.649    -179.119    -240.616
  C      607.570    -177.430    -241.839
  C      606.808    -176.331    -241.775
  O      605.463    -174.693    -245.879
  O      605.653    -172.140    -246.333
  H      605.811    -173.317    -238.186
  H      604.665    -172.158    -246.296
  H      607.736    -178.012    -238.584
  H      607.924    -177.844    -242.793
  H      606.524    -175.800    -242.684
  H      604.797    -174.765    -239.735
  H      607.460    -173.664    -239.675
  H      607.323    -173.031    -241.923
  H      604.382    -172.295    -241.493
  H      604.331    -173.136    -243.922
  H      605.022    -171.509    -243.663
  P      608.312    -170.620    -241.567
  C      610.702    -170.828    -240.535
  O      609.293    -171.009    -240.353
  O      608.382    -169.235    -242.121
  O      608.806    -171.628    -242.736
  H      609.356    -171.114    -243.355
  H      611.218    -171.128    -239.647
  H      610.906    -169.797    -240.735
  H      611.035    -171.424    -241.359

 6  7  8  9  10  11  12  13  14  15  16  26  31  32  33  34  35 0
 6-311+G(2d,p)
 ****
 36  37 0
 6-311+G(2d,p)
 ****
 1  2  3  4  5  17  18  19  20  21  22  23  24  25 0
 3-21G
 ****
 27  28  29  30  38  39  40  41  42  43  44  45 0
 3-21G
 ****


