%nproc=1
%NoSave
%Mem=1900MB
#P OB98/GEN NMR

erre ene a

0 1
  C     -553.145    -600.415     582.084
  O     -553.415    -601.731     581.659
  H     -552.865    -600.438     583.141
  H     -554.038    -599.792     581.968
  H     -552.317    -599.974     581.513
  P     -553.531    -602.026     580.087
  C     -553.698    -604.487     580.864
  O     -554.136    -603.507     579.934
  C     -554.404    -605.833     580.613
  O     -555.811    -605.689     580.927
  C     -554.312    -606.234     579.135
  O     -554.356    -607.654     578.960
  C     -555.582    -605.627     578.542
  O     -556.003    -606.275     577.342
  C     -556.562    -605.787     579.705
  N     -561.591    -604.935     579.781
  C     -560.917    -606.117     579.599
  N     -561.680    -607.229     579.420
  N     -559.606    -606.213     579.576
  C     -558.979    -605.018     579.701
  C     -559.537    -603.775     579.866
  C     -560.988    -603.684     579.926
  O     -561.633    -602.654     580.059
  N     -558.576    -602.798     579.950
  C     -557.435    -603.439     579.829
  N     -557.625    -604.800     579.700
  O     -552.007    -602.226     579.624
  O     -554.215    -600.968     579.277
  H     -556.049    -607.233     577.525
  H     -551.925    -602.070     578.675
  H     -562.595    -604.918     579.827
  H     -556.457    -602.986     579.839
  H     -557.033    -606.776     579.681
  H     -555.372    -604.587     578.299
  H     -562.663    -607.158     579.228
  H     -553.427    -605.842     578.642
  H     -561.214    -608.022     578.979
  H     -553.997    -606.593     581.277
  H     -553.941    -604.109     581.862
  H     -552.617    -604.602     580.814
  P     -553.024    -608.494     579.231
  C     -554.550    -610.649     578.927
  O     -553.271    -610.040     578.876
  O     -552.881    -608.487     580.818
  O     -551.806    -607.949     578.555
  H     -552.089    -608.004     581.090
  H     -554.466    -611.679     578.650
  H     -555.210    -610.150     578.248
  H     -554.940    -610.577     579.921

 6  7  8  9  10  11  12  13  14  15  26  29  33  34 0
 6-311+G(2d,p)
 ****
 36  38  39  40  41 0
 6-311+G(2d,p)
 ****
 1  2  3  4  5  16  17  18  19  20  21  22  23  24  25 0
 3-21G
 ****
 27  28  30  31  32  35  37  42  43  44  45  46  47 0
 3-21G
 ****
 48  49 0
 3-21G
 ****


