%nproc=1
%NoSave
%Mem=1900MB
#P OB98/GEN NMR

erre ene a

0 1
  C      -57.609      43.883     101.193
  O      -58.258      43.802      99.935
  P      -58.026      42.479      99.054
  C      -59.957      41.243     100.291
  O      -58.590      41.248      99.917
  C      -60.624      39.931      99.871
  O      -61.859      39.780     100.618
  C      -60.980      39.838      98.384
  O      -60.855      38.461      98.009
  C      -62.442      40.243      98.356
  O      -63.118      39.782      97.190
  C      -62.930      39.628      99.662
  N      -67.105      39.105     102.467
  C      -66.157      38.164     102.107
  N      -66.318      36.926     102.619
  N      -65.144      38.416     101.321
  C      -65.106      39.702     100.900
  C      -66.003      40.713     101.154
  C      -67.097      40.431     102.055
  O      -67.910      41.254     102.469
  N      -65.676      41.858     100.479
  C      -64.539      41.564      99.882
  N      -64.129      40.285     100.145
  O      -56.440      42.286      99.113
  O      -58.548      42.533      97.654
  H      -64.052      40.068      97.254
  H      -56.007      42.701      98.341
  H      -67.853      38.856     103.091
  H      -63.969      42.233      99.257
  H      -63.154      38.558      99.566
  H      -62.522      41.337      98.380
  H      -67.057      36.670     103.256
  H      -60.354      40.466      97.743
  H      -65.620      36.226     102.398
  H      -59.965      39.103     100.159
  H      -60.466      42.069      99.785
  H      -60.043      41.395     101.371
  P      -60.765      38.114      96.447
  C      -58.518      39.229      95.806
  O      -59.928      39.280      95.740
  O      -62.263      38.376      95.937
  O      -60.337      36.716      96.138
  H      -62.471      37.765      95.206
  H      -58.106      39.818      94.982
  H      -58.147      38.203      95.724
  H      -58.182      39.661      96.751
  H      -57.855      44.813     101.662
  H      -56.550      43.823     101.052
  H      -57.932      43.074     101.814

 3  4  5  6  7  8  9  10  11  12  23  26  30  31 0
 6-311+G(2d,p)
 ****
 33  35  36  37  38 0
 6-311+G(2d,p)
 ****
 1  2  13  14  15  16  17  18  19  20  21  22  24  25 0
 3-21G
 ****
 27  28  29  32  34  39  40  41  42  43  44  45  46  47  48  49 0
 3-21G
 ****


