%nproc=1
%NoSave
%Mem=1900MB
#P OB98/GEN NMR

erre ene a

0 1
  C      162.742      57.985     -93.860
  O      162.914      58.468     -92.543
  H      163.174      56.985     -93.943
  H      161.672      57.924     -94.075
  H      163.210      58.656     -94.585
  P      164.392      58.921     -92.115
  C      166.120      60.604     -93.075
  O      164.765      60.180     -93.043
  C      166.274      61.833     -93.969
  O      165.972      61.447     -95.341
  C      165.353      63.005     -93.598
  O      166.077      64.226     -93.777
  C      164.252      62.926     -94.641
  O      163.619      64.180     -94.869
  C      165.023      62.401     -95.848
  N      161.667      63.420     -99.529
  C      162.611      64.180     -98.933
  N      163.505      63.812     -97.993
  C      163.403      62.498     -97.730
  C      162.499      61.596     -98.261
  C      161.583      62.111     -99.194
  N      160.574      61.363     -99.757
  N      162.675      60.347     -97.696
  C      163.650      60.502     -96.822
  N      164.120      61.785     -96.805
  O      165.298      57.739     -92.706
  O      164.609      59.114     -90.653
  H      164.265      64.895     -94.708
  H      165.366      57.021     -92.051
  H      162.645      65.221     -99.242
  H      164.029      59.735     -96.161
  H      165.574      63.190     -96.375
  H      163.490      62.208     -94.317
  H      164.962      62.953     -92.576
  H      167.324      62.147     -93.949
  H      166.738      59.794     -93.476
  H      159.900      61.843    -100.332
  H      160.430      60.417     -99.435
  H      166.452      60.830     -92.057
  P      166.821      64.837     -92.495
  C      168.915      64.255     -91.061
  O      168.179      64.024     -92.258
  O      165.894      64.371     -91.276
  O      166.971      66.323     -92.535
  H      165.904      65.040     -90.568
  H      169.790      63.639     -91.056
  H      168.305      64.016     -90.215
  H      169.203      65.284     -91.013

 6  7  8  9  10  11  12  13  14  15  25  28  32  33  34  35 0
 6-311+G(2d,p)
 ****
 36  39  40 0
 6-311+G(2d,p)
 ****
 1  2  3  4  5  16  17  18  19  20  21  22  23  24 0
 3-21G
 ****
 26  27  29  30  31  37  38  41  42  43  44  45  46  47 0
 3-21G
 ****
 48 0
 3-21G
 ****


