%nproc=1
%NoSave
%Mem=1900MB
#P OB98/GEN NMR

erre ene a

0 1
  C      122.086     235.765      49.936
  O      121.038     234.894      49.545
  P      119.514     235.249      49.866
  C      119.879     234.700      52.407
  O      119.109     234.541      51.236
  C      119.550     233.558      53.377
  O      118.222     233.726      53.912
  C      119.610     232.199      52.684
  O      120.884     231.601      52.864
  C      118.484     231.436      53.354
  O      118.917     230.906      54.620
  C      117.436     232.553      53.570
  N      116.554     232.908      52.443
  C      115.363     233.585      52.687
  O      114.998     233.943      53.803
  N      114.576     233.820      51.587
  C      114.886     233.489      50.300
  O      114.084     233.483      49.374
  C      116.260     233.031      50.079
  C      117.010     232.743      51.143
  O      118.709     234.414      48.765
  O      119.171     236.702      49.828
  H      119.454     231.595      55.051
  H      118.458     234.985      48.015
  H      113.647     234.184      51.776
  H      116.597     232.890      49.061
  H      118.020     232.365      51.003
  H      116.790     232.324      54.426
  H      118.177     230.580      52.755
  H      119.376     232.306      51.617
  H      120.258     233.590      54.215
  H      119.662     235.668      52.870
  H      120.945     234.691      52.160
  P      121.723     231.128      51.588
  C      120.479     228.907      51.294
  O      121.702     229.525      51.639
  O      123.073     231.746      51.438
  O      120.761     231.495      50.360
  H      121.034     232.351      49.970
  H      120.644     227.833      51.194
  H      120.102     229.300      50.345
  H      119.743     229.079      52.085
  H      123.025     235.352      49.632
  H      122.075     235.881      51.000
  H      121.949     236.719      49.472

 3  4  5  6  7  8  9  10  11  12  13  23  28  29  30  31  32 0
 6-311+G(2d,p)
 ****
 33  34 0
 6-311+G(2d,p)
 ****
 1  2  14  15  16  17  18  19  20  21  22  24  25  26  27 0
 3-21G
 ****
 35  36  37  38  39  40  41  42  43  44  45 0
 3-21G
 ****


