%nproc=1
%NoSave
%Mem=1900MB
#P OB98/GEN NMR

erre ene a

0 1
  C      482.889     574.901     483.774
  O      483.891     573.899     483.967
  P      485.386     574.370     484.295
  C      485.219     574.894     486.820
  O      485.714     574.003     485.827
  C      486.337     575.281     487.811
  O      485.964     576.508     488.489
  C      486.597     574.253     488.916
  O      487.537     573.211     488.666
  C      487.205     575.141     490.007
  O      488.613     575.319     489.753
  C      486.478     576.465     489.827
  N      485.286     577.797     494.631
  C      486.475     577.721     493.980
  N      486.700     577.354     492.701
  C      485.548     577.065     492.083
  C      484.268     577.092     492.618
  C      484.158     577.472     493.959
  N      482.960     577.533     494.630
  N      483.338     576.706     491.667
  C      484.042     576.437     490.589
  N      485.384     576.650     490.779
  O      485.747     575.758     483.883
  O      486.270     573.291     483.501
  H      488.685     575.766     488.886
  H      487.058     573.741     483.126
  H      487.350     577.987     494.563
  H      483.634     576.090     489.653
  H      487.147     577.330     489.954
  H      487.125     574.691     491.003
  H      485.649     573.813     489.278
  H      487.259     575.463     487.249
  H      484.394     574.418     487.365
  H      482.967     577.766     495.604
  H      482.108     577.242     494.161
  H      484.803     575.768     486.304
  P      487.169     571.669     488.930
  C      485.590     571.162     486.917
  O      486.867     571.037     487.493
  O      486.097     571.446     489.948
  O      488.589     571.034     489.315
  H      489.219     571.002     488.583
  H      485.641     570.864     485.857
  H      485.231     572.190     486.976
  H      484.891     570.498     487.431
  H      481.951     574.431     483.565
  H      483.165     575.528     482.952
  H      482.801     575.493     484.661

 3  4  5  6  7  8  9  10  11  12  22  25  29  30  31  32 0
 6-311+G(2d,p)
 ****
 33  36  37 0
 6-311+G(2d,p)
 ****
 1  2  13  14  15  16  17  18  19  20  21  23  24  26 0
 3-21G
 ****
 27  28  34  35  38  39  40  41  42  43  44  45  46  47  48 0
 3-21G
 ****


