%nproc=1
%NoSave
%Mem=1900MB
#P OB98/GEN NMR

erre ene a

0 1
  C     -139.504      65.271      21.957
  O     -138.611      65.616      20.906
  P     -137.457      66.684      21.231
  C     -136.646      66.693      18.760
  O     -137.173      67.450      19.850
  C     -136.464      67.580      17.532
  O     -137.703      68.222      17.189
  C     -135.449      68.702      17.708
  O     -134.115      68.262      17.528
  C     -135.856      69.638      16.579
  O     -135.337      69.154      15.330
  C     -137.384      69.511      16.597
  N     -139.733      74.040      16.271
  C     -139.124      73.280      15.341
  N     -138.511      72.086      15.507
  C     -138.534      71.719      16.804
  C     -139.083      72.413      17.869
  C     -139.725      73.626      17.563
  N     -140.369      74.397      18.507
  N     -138.911      71.724      19.047
  C     -138.279      70.619      18.698
  N     -138.036      70.568      17.352
  O     -136.158      65.767      21.417
  O     -137.709      67.546      22.420
  H     -135.422      69.882      14.685
  H     -135.492      66.232      21.961
  H     -139.131      73.669      14.329
  H     -137.977      69.833      19.382
  H     -137.815      69.516      15.587
  H     -135.479      70.655      16.711
  H     -135.587      69.214      18.673
  H     -136.173      66.933      16.692
  H     -137.346      65.887      18.518
  H     -140.951      75.149      18.182
  H     -140.533      73.986      19.419
  H     -135.692      66.252      19.060
  P     -132.965      69.385      17.558
  C     -131.210      67.584      16.929
  O     -131.803      68.830      16.616
  O     -132.369      69.258      19.038
  O     -133.458      70.767      17.266
  H     -131.974      70.102      19.323
  H     -130.679      67.214      16.044
  H     -131.966      66.843      17.213
  H     -130.496      67.704      17.745
  H     -140.215      64.555      21.600
  H     -140.018      66.148      22.291
  H     -138.951      64.850      22.771

 3  4  5  6  7  8  9  10  11  12  22  25  29  30  31  32 0
 6-311+G(2d,p)
 ****
 33  36  37 0
 6-311+G(2d,p)
 ****
 1  2  13  14  15  16  17  18  19  20  21  23  24  26 0
 3-21G
 ****
 27  28  34  35  38  39  40  41  42  43  44  45  46  47  48 0
 3-21G
 ****


