%nproc=1
%NoSave
%Mem=1900MB
#P OB98/GEN NMR

erre ene a

0 1
  C      922.239     588.207     -57.070
  O      922.257     588.067     -55.661
  H      923.154     588.712     -57.379
  H      921.386     588.820     -57.379
  H      922.196     587.230     -57.559
  P      921.054     587.262     -54.952
  C      921.019     588.566     -52.739
  O      921.330     587.334     -53.368
  C      921.837     588.735     -51.462
  O      921.526     587.639     -50.559
  C      923.355     588.722     -51.685
  O      923.952     589.671     -50.793
  C      923.775     587.325     -51.306
  O      925.129     587.258     -50.868
  C      922.770     586.993     -50.199
  N      923.888     582.970     -47.357
  C      924.175     584.302     -47.164
  N      924.906     584.613     -46.061
  N      923.802     585.247     -47.974
  C      923.077     584.798     -49.028
  C      922.718     583.503     -49.322
  C      923.156     582.463     -48.427
  O      922.939     581.266     -48.547
  N      921.997     583.440     -50.501
  C      921.925     584.700     -50.901
  N      922.568     585.559     -50.061
  O      920.813     585.885     -55.475
  O      919.782     588.213     -55.150
  H      925.695     587.407     -51.652
  H      919.232     587.894     -55.893
  H      924.209     582.279     -46.693
  H      921.429     585.033     -51.814
  H      923.080     587.370     -49.212
  H      923.657     586.644     -52.163
  H      925.215     583.935     -45.380
  H      923.635     588.972     -52.725
  H      925.110     585.598     -45.890
  H      921.523     589.662     -50.957
  H      919.950     588.569     -52.490
  H      921.230     589.401     -53.426
  P      923.802     591.236     -51.104
  C      925.872     591.883     -49.698
  O      924.468     592.053     -49.888
  O      922.435     591.684     -51.505
  O      924.865     591.471     -52.295
  H      924.541     592.203     -52.853
  H      926.193     592.473     -48.865
  H      926.392     592.197     -50.579
  H      926.084     590.852     -49.507

 6  7  8  9  10  11  12  13  14  15  26  29  33  34 0
 6-311+G(2d,p)
 ****
 36  38  39  40  41 0
 6-311+G(2d,p)
 ****
 1  2  3  4  5  16  17  18  19  20  21  22  23  24  25 0
 3-21G
 ****
 27  28  30  31  32  35  37  42  43  44  45  46  47 0
 3-21G
 ****
 48  49 0
 3-21G
 ****


