%nproc=1
%NoSave
%Mem=1900MB
#P OB98/GEN NMR

erre ene a

0 1
  C     -206.511     106.490     -48.934
  O     -205.383     105.811     -48.425
  H     -206.952     107.084     -48.129
  H     -207.257     105.774     -49.287
  H     -206.227     107.162     -49.747
  P     -204.450     104.996     -49.442
  C     -203.618     107.252     -50.367
  O     -204.147     105.969     -50.679
  C     -202.189     107.366     -50.893
  O     -201.332     106.431     -50.201
  C     -202.050     107.027     -52.372
  O     -202.526     108.075     -53.193
  C     -200.557     106.763     -52.463
  O     -199.820     107.986     -52.581
  C     -200.265     106.078     -51.110
  N     -200.143     104.627     -51.243
  C     -199.267     104.001     -50.363
  O     -198.624     104.600     -49.504
  N     -199.103     102.654     -50.545
  C     -199.609     101.925     -51.582
  O     -199.240     100.785     -51.846
  C     -200.575     102.624     -52.442
  C     -200.786     103.927     -52.244
  O     -204.932     103.633     -49.810
  O     -203.039     104.931     -48.686
  H     -202.928     104.046     -48.289
  H     -198.915     107.784     -52.267
  H     -198.436     102.200     -49.937
  H     -201.054     102.060     -53.233
  H     -201.468     104.474     -52.887
  H     -199.336     106.469     -50.675
  H     -200.312     106.143     -53.327
  H     -202.589     106.099     -52.591
  H     -201.825     108.380     -50.688
  H     -203.616     107.377     -49.279
  H     -204.259     108.020     -50.813
  P     -203.119     107.756     -54.646
  C     -205.397     107.586     -53.470
  O     -204.539     107.036     -54.463
  O     -202.181     107.065     -55.578
  O     -203.527     109.195     -55.221
  H     -203.149     109.295     -56.116
  H     -206.309     107.028     -53.438
  H     -205.611     108.607     -53.709
  H     -204.915     107.537     -52.516

 6  7  8  9  10  11  12  13  14  15  16  27  31  32  33  34  35 0
 6-311+G(2d,p)
 ****
 36  37 0
 6-311+G(2d,p)
 ****
 1  2  3  4  5  17  18  19  20  21  22  23  24  25 0
 3-21G
 ****
 26  28  29  30  38  39  40  41  42  43  44  45 0
 3-21G
 ****


