%nproc=1
%NoSave
%Mem=1900MB
#P OB98/GEN NMR

erre ene a

0 1
  C      674.822    -160.234     407.142
  O      675.063    -160.839     408.411
  P      673.782    -161.312     409.262
  C      674.738    -163.633     409.933
  O      673.770    -162.911     409.172
  C      674.102    -164.233     411.182
  O      673.009    -165.109     410.816
  C      675.037    -165.064     412.034
  O      675.849    -164.279     412.893
  C      674.045    -165.890     412.848
  O      673.538    -165.083     413.936
  C      672.938    -166.162     411.819
  N      672.525    -171.218     412.472
  C      672.400    -170.184     413.332
  N      672.549    -168.871     413.084
  C      672.870    -168.653     411.801
  C      673.079    -169.622     410.813
  C      672.881    -170.955     411.191
  N      672.981    -172.005     410.296
  N      673.415    -169.015     409.625
  C      673.403    -167.728     409.868
  N      673.082    -167.457     411.172
  O      672.551    -160.878     408.323
  O      673.687    -160.725     410.631
  H      672.954    -164.425     413.551
  H      671.746    -160.775     408.869
  H      672.146    -170.459     414.359
  H      673.625    -166.951     409.142
  H      671.945    -166.123     412.262
  H      674.497    -166.777     413.296
  H      675.647    -165.750     411.413
  H      673.678    -163.411     411.777
  H      675.537    -162.954     410.227
  H      672.647    -172.917     410.602
  H      673.044    -171.787     409.310
  H      675.166    -164.427     409.311
  P      677.389    -164.732     413.071
  C      678.221    -162.482     412.086
  O      678.201    -163.885     411.981
  O      677.387    -166.222     412.487
  O      677.885    -164.663     414.473
  H      678.115    -166.738     412.885
  H      679.045    -162.091     411.469
  H      678.364    -162.151     413.109
  H      677.288    -162.061     411.696
  H      675.755    -159.971     406.689
  H      674.228    -159.354     407.274
  H      674.302    -160.924     406.511

 3  4  5  6  7  8  9  10  11  12  22  25  29  30  31  32 0
 6-311+G(2d,p)
 ****
 33  36  37 0
 6-311+G(2d,p)
 ****
 1  2  13  14  15  16  17  18  19  20  21  23  24  26 0
 3-21G
 ****
 27  28  34  35  38  39  40  41  42  43  44  45  46  47  48 0
 3-21G
 ****


