%nproc=1
%NoSave
%Mem=1900MB
#P OB98/GEN NMR

erre ene a

0 1
  C      131.836     234.720     149.900
  O      132.474     233.479     150.219
  P      132.088     232.758     151.602
  C      134.328     231.590     152.411
  O      133.037     231.491     151.837
  C      134.719     230.223     153.002
  O      133.930     229.932     154.177
  C      134.501     229.056     152.037
  O      135.614     228.864     151.176
  C      134.255     227.897     152.982
  O      135.498     227.423     153.532
  C      133.399     228.583     154.077
  N      131.932     228.663     153.864
  C      131.135     227.560     154.137
  O      131.554     226.477     154.537
  N      129.786     227.725     153.928
  C      129.146     228.912     153.662
  O      127.930     229.014     153.550
  C      130.033     230.079     153.543
  C      131.348     229.904     153.633
  O      130.659     232.104     151.308
  O      132.059     233.673     152.791
  H      135.267     226.838     154.285
  H      129.972     232.520     151.877
  H      129.193     226.920     154.050
  H      129.568     231.044     153.372
  H      132.004     230.771     153.540
  H      133.554     228.097     155.052
  H      133.803     227.043     152.459
  H      133.585     229.218     151.455
  H      135.778     230.256     153.300
  H      134.349     232.348     153.192
  H      135.047     231.889     151.648
  P      135.912     229.905     150.000
  C      137.135     227.926     148.900
  O      137.174     229.307     149.189
  O      136.016     231.345     150.396
  O      134.690     229.660     148.967
  H      133.969     230.308     149.114
  H      137.972     227.691     148.238
  H      136.191     227.662     148.427
  H      137.258     227.347     149.822
  H      132.194     235.073     148.955
  H      132.060     235.441     150.658
  H      130.777     234.574     149.848

 3  4  5  6  7  8  9  10  11  12  13  23  28  29  30  31  32 0
 6-311+G(2d,p)
 ****
 33  34 0
 6-311+G(2d,p)
 ****
 1  2  14  15  16  17  18  19  20  21  22  24  25  26  27 0
 3-21G
 ****
 35  36  37  38  39  40  41  42  43  44  45 0
 3-21G
 ****


