%nproc=1
%NoSave
%Mem=1900MB
#P OB98/GEN NMR

erre ene a

0 1
  C     -117.376    -571.929    -317.945
  O     -118.450    -572.284    -318.795
  P     -119.887    -571.620    -318.504
  C     -122.247    -571.965    -319.541
  O     -120.835    -572.051    -319.720
  C     -122.964    -572.376    -320.822
  O     -122.726    -571.416    -321.871
  C     -122.518    -573.708    -321.393
  O     -123.128    -574.816    -320.737
  C     -123.011    -573.609    -322.824
  O     -124.422    -573.905    -322.884
  C     -122.764    -572.125    -323.141
  N     -120.696    -571.440    -327.708
  C     -122.026    -571.444    -327.330
  N     -122.930    -571.302    -328.321
  N     -122.428    -571.572    -326.099
  C     -121.415    -571.712    -325.208
  C     -120.052    -571.723    -325.467
  C     -119.624    -571.591    -326.838
  O     -118.461    -571.636    -327.242
  N     -119.329    -571.879    -324.307
  C     -120.245    -571.960    -323.357
  N     -121.522    -571.907    -323.862
  O     -119.630    -570.064    -318.772
  O     -120.424    -571.874    -317.138
  H     -124.686    -573.783    -323.818
  H     -120.345    -569.533    -318.370
  H     -120.434    -571.344    -328.673
  H     -120.030    -572.068    -322.305
  H     -123.576    -571.690    -323.735
  H     -122.513    -574.307    -323.507
  H     -122.688    -571.269    -329.306
  H     -121.422    -573.802    -321.393
  H     -123.913    -571.366    -328.085
  H     -124.048    -572.389    -320.618
  H     -122.514    -570.939    -319.285
  H     -122.544    -572.613    -318.719
  P     -122.762    -576.277    -321.279
  C     -122.974    -578.620    -320.173
  O     -122.794    -577.234    -319.991
  O     -121.203    -576.151    -321.623
  O     -123.562    -576.729    -322.458
  H     -120.953    -576.795    -322.309
  H     -122.714    -579.137    -319.243
  H     -122.335    -578.998    -320.977
  H     -124.020    -578.833    -320.410
  H     -116.490    -572.443    -318.256
  H     -117.613    -572.203    -316.938
  H     -117.213    -570.873    -317.999

 3  4  5  6  7  8  9  10  11  12  23  26  30  31 0
 6-311+G(2d,p)
 ****
 33  35  36  37  38 0
 6-311+G(2d,p)
 ****
 1  2  13  14  15  16  17  18  19  20  21  22  24  25 0
 3-21G
 ****
 27  28  29  32  34  39  40  41  42  43  44  45  46  47  48  49 0
 3-21G
 ****


