%nproc=1
%NoSave
%Mem=1900MB
#P OB98/GEN NMR

erre ene a

0 1
  C      -62.678     -15.632    1364.927
  O      -61.616     -14.996    1365.622
  H      -63.025     -14.963    1364.129
  H      -63.510     -15.828    1365.606
  H      -62.333     -16.562    1364.474
  P      -60.821     -15.820    1366.738
  C      -62.673     -15.779    1368.531
  O      -61.373     -15.332    1368.159
  C      -63.045     -15.204    1369.898
  O      -62.077     -15.620    1370.896
  C      -63.064     -13.677    1369.945
  O      -64.226     -13.151    1369.335
  C      -62.964     -13.432    1371.440
  O      -64.254     -13.578    1372.065
  C      -62.007     -14.560    1371.885
  N      -60.634     -14.100    1372.063
  C      -60.417     -13.162    1373.083
  O      -61.331     -12.695    1373.764
  N      -59.121     -12.736    1373.240
  C      -58.069     -13.073    1372.444
  O      -56.950     -12.597    1372.568
  C      -58.356     -14.048    1371.372
  C      -59.602     -14.515    1371.240
  O      -59.333     -15.821    1366.605
  O      -61.419     -17.303    1366.611
  H      -64.865     -12.991    1371.576
  H      -60.773     -17.878    1366.155
  H      -58.946     -12.050    1373.955
  H      -57.540     -14.346    1370.722
  H      -59.832     -15.222    1370.452
  H      -62.347     -14.993    1372.832
  H      -62.605     -12.428    1371.672
  H      -62.159     -13.278    1369.463
  H      -64.029     -15.612    1370.189
  H      -62.671     -16.872    1368.586
  H      -63.390     -15.460    1367.770
  P      -64.094     -12.168    1368.076
  C      -63.535     -10.077    1369.454
  O      -64.462     -10.693    1368.586
  O      -64.790     -12.616    1366.830
  O      -62.508     -12.068    1367.838
  H      -62.302     -12.394    1366.937
  H      -63.890      -9.104    1369.722
  H      -62.589      -9.988    1368.961
  H      -63.423     -10.672    1370.336

 6  7  8  9  10  11  12  13  14  15  16  26  31  32  33  34  35 0
 6-311+G(2d,p)
 ****
 36  37 0
 6-311+G(2d,p)
 ****
 1  2  3  4  5  17  18  19  20  21  22  23  24  25 0
 3-21G
 ****
 27  28  29  30  38  39  40  41  42  43  44  45 0
 3-21G
 ****


