%nproc=1
%NoSave
%Mem=1900MB
#P OB98/GEN NMR

erre ene a

0 1
  C     -103.154     386.627    -137.919
  O     -101.867     386.042    -138.015
  P     -101.787     384.446    -138.146
  C     -100.053     384.194    -140.072
  O     -101.425     384.146    -139.678
  C      -99.808     385.381    -140.995
  O      -99.844     386.607    -140.242
  C      -98.449     385.358    -141.680
  O      -98.445     384.449    -142.761
  C      -98.300     386.818    -142.097
  O      -98.920     387.055    -143.375
  C      -99.048     387.571    -140.973
  N      -98.150     388.291    -140.082
  C      -97.723     389.545    -140.537
  O      -98.098     389.968    -141.636
  N      -96.854     390.267    -139.753
  C      -96.450     389.779    -138.625
  N      -95.593     390.539    -137.890
  C      -96.855     388.451    -138.125
  C      -97.693     387.764    -138.895
  O     -103.316     383.995    -138.028
  O     -100.915     383.778    -137.130
  H      -99.050     388.021    -143.426
  H     -103.386     383.082    -137.685
  H      -96.481     388.086    -137.175
  H      -98.042     386.784    -138.612
  H      -99.754     388.297    -141.400
  H      -97.253     387.113    -142.197
  H      -97.658     385.102    -140.959
  H     -100.618     385.412    -141.744
  H      -95.324     391.444    -138.266
  H      -99.806     383.274    -140.606
  H      -95.235     390.257    -136.984
  H      -99.430     384.258    -139.178
  P      -97.249     383.393    -142.845
  C      -98.638     381.247    -142.627
  O      -97.751     382.136    -141.981
  O      -96.151     384.049    -141.877
  O      -96.698     383.090    -144.200
  H      -95.320     383.539    -141.922
  H      -98.773     380.366    -141.993
  H      -98.243     380.936    -143.589
  H      -99.614     381.733    -142.766
  H     -103.058     387.690    -137.837
  H     -103.655     386.247    -137.053
  H     -103.721     386.386    -138.794

 3  4  5  6  7  8  9  10  11  12  13  21  23  27  28  29  30  32 0
 6-311+G(2d,p)
 ****
 34  35 0
 6-311+G(2d,p)
 ****
 1  2  14  15  16  17  18  19  20  22  24  25  26 0
 3-21G
 ****
 31  33  36  37  38  39  40  41  42  43  44  45  46 0
 3-21G
 ****


