%nproc=1
%NoSave
%Mem=1900MB
#P OB98/GEN NMR

erre ene a

0 1
  C      199.883     862.286      58.675
  O      200.426     861.157      59.330
  H      199.492     862.990      59.417
  H      200.677     862.783      58.110
  H      199.087     861.991      57.988
  P      199.392     860.114      59.976
  C      199.101     861.187      62.321
  O      198.520     860.938      61.052
  C      198.168     862.061      63.167
  O      197.962     863.317      62.477
  C      196.793     861.432      63.442
  O      196.403     861.751      64.785
  C      195.876     862.169      62.474
  O      194.519     862.190      62.913
  C      196.534     863.538      62.436
  N      192.556     865.490      59.936
  C      192.706     865.083      61.216
  N      193.816     864.622      61.817
  C      194.876     864.677      60.973
  C      194.878     865.080      59.650
  C      193.644     865.484      59.118
  N      193.468     865.842      57.807
  N      196.148     864.936      59.113
  C      196.882     864.444      60.087
  N      196.154     864.262      61.236
  O      200.343     859.204      60.888
  O      198.605     859.299      59.001
  H      194.030     862.852      62.372
  H      200.703     858.470      60.356
  H      191.811     865.111      61.828
  H      197.914     864.157      60.006
  H      196.260     864.171      63.295
  H      195.920     861.684      61.491
  H      196.762     860.347      63.296
  H      198.683     862.293      64.110
  H      200.057     861.714      62.184
  H      192.522     866.016      57.481
  H      194.241     865.739      57.161
  H      199.297     860.235      62.826
  P      196.767     860.690      65.934
  C      194.372     859.692      66.155
  O      195.736     859.462      65.839
  O      196.325     861.438      67.275
  O      198.211     860.303      65.962
  H      196.915     861.185      68.010
  H      193.822     858.781      66.044
  H      193.973     860.433      65.494
  H      194.293     860.035      67.165

 6  7  8  9  10  11  12  13  14  15  25  28  32  33  34  35 0
 6-311+G(2d,p)
 ****
 36  39  40 0
 6-311+G(2d,p)
 ****
 1  2  3  4  5  16  17  18  19  20  21  22  23  24 0
 3-21G
 ****
 26  27  29  30  31  37  38  41  42  43  44  45  46  47 0
 3-21G
 ****
 48 0
 3-21G
 ****


