%nproc=1
%NoSave
%Mem=1900MB
#P OB98/GEN NMR

erre ene a

0 1
  C      127.978    -717.634     267.999
  O      129.074    -717.549     268.887
  H      128.359    -717.641     266.975
  H      127.324    -716.768     268.121
  H      127.412    -718.554     268.167
  P      128.803    -717.689     270.460
  C      131.032    -716.485     270.951
  O      129.628    -716.517     271.182
  C      131.528    -715.042     270.966
  O      131.097    -714.360     269.767
  C      130.984    -714.217     272.121
  O      131.625    -714.536     273.339
  C      131.235    -712.807     271.609
  O      132.594    -712.410     271.842
  C      130.968    -712.961     270.094
  N      129.651    -712.447     269.715
  C      129.369    -711.144     270.093
  O      130.162    -710.423     270.701
  N      128.106    -710.693     269.795
  C      127.090    -711.462     269.303
  O      125.921    -711.093     269.288
  C      127.461    -712.811     268.868
  C      128.705    -713.246     269.104
  O      129.006    -719.052     271.034
  O      127.283    -717.204     270.622
  H      126.709    -717.990     270.721
  H      132.632    -712.117     272.776
  H      127.879    -709.760     270.102
  H      126.696    -713.428     268.408
  H      128.995    -714.255     268.819
  H      131.730    -712.427     269.516
  H      130.586    -712.079     272.095
  H      129.899    -714.370     272.210
  H      132.626    -715.052     270.975
  H      131.237    -716.935     269.975
  H      131.533    -717.076     271.727
  P      130.942    -714.145     274.738
  C      133.135    -714.734     275.949
  O      132.111    -713.763     275.771
  O      129.943    -715.123     275.256
  O      130.254    -712.727     274.445
  H      129.325    -712.760     274.751
  H      133.852    -714.371     276.655
  H      133.618    -714.919     275.012
  H      132.705    -715.643     276.314

 6  7  8  9  10  11  12  13  14  15  16  27  31  32  33  34  35 0
 6-311+G(2d,p)
 ****
 36  37 0
 6-311+G(2d,p)
 ****
 1  2  3  4  5  17  18  19  20  21  22  23  24  25 0
 3-21G
 ****
 26  28  29  30  38  39  40  41  42  43  44  45 0
 3-21G
 ****


