%nproc=1
%NoSave
%Mem=1900MB
#P OB98/GEN NMR

erre ene a

0 1
  C      282.393    -280.814    -134.814
  O      281.972    -280.793    -136.163
  H      281.719    -280.183    -134.230
  H      283.406    -280.421    -134.731
  H      282.352    -281.834    -134.417
  P      282.830    -281.681    -137.193
  C      282.415    -282.603    -139.595
  O      281.939    -281.811    -138.520
  C      281.371    -282.666    -140.718
  O      280.181    -283.344    -140.213
  C      280.917    -281.291    -141.221
  O      280.529    -281.427    -142.600
  C      279.682    -281.039    -140.367
  O      278.915    -279.976    -140.889
  C      279.066    -282.438    -140.395
  N      274.378    -281.196    -138.780
  C      275.065    -280.858    -139.889
  N      276.304    -281.239    -140.262
  C      276.837    -282.072    -139.346
  C      276.259    -282.518    -138.176
  C      274.963    -282.040    -137.892
  N      274.267    -282.381    -136.754
  N      277.113    -283.372    -137.491
  C      278.186    -283.439    -138.246
  N      278.074    -282.666    -139.373
  O      282.772    -283.148    -136.545
  O      284.234    -281.228    -137.418
  H      278.107    -279.829    -140.353
  H      283.567    -283.302    -136.004
  H      274.550    -280.185    -140.574
  H      279.080    -284.018    -138.026
  H      278.612    -282.662    -141.365
  H      279.965    -280.756    -139.345
  H      281.685    -280.517    -141.138
  H      281.762    -283.282    -141.542
  H      282.620    -283.617    -139.217
  H      283.345    -282.173    -139.986
  H      273.349    -281.981    -136.623
  H      274.695    -282.994    -136.077
  P      281.667    -281.425    -143.743
  C      281.616    -282.524    -146.121
  O      280.966    -281.698    -145.160
  O      282.416    -282.818    -143.465
  O      282.630    -280.286    -143.691
  H      283.336    -282.751    -143.764
  H      281.009    -282.595    -146.999
  H      281.764    -283.501    -145.710
  H      282.563    -282.097    -146.376

 6  7  8  9  10  11  12  13  14  15  25  28  32  33  34  35 0
 6-311+G(2d,p)
 ****
 36  37  40 0
 6-311+G(2d,p)
 ****
 1  2  3  4  5  16  17  18  19  20  21  22  23  24 0
 3-21G
 ****
 26  27  29  30  31  38  39 41  42  43  44  45  46  47  48 0
 3-21G
 ****


