%nproc=1
%NoSave
%Mem=1900MB
#P OB98/GEN NMR

erre ene a

0 1
  C      813.282     152.289     232.326
  O      813.294     152.390     230.910
  P      814.313     153.368     230.155
  C      812.454     154.876     229.217
  O      813.521     153.989     228.903
  C      811.404     154.856     228.098
  O      811.959     155.525     226.921
  C      810.989     153.434     227.674
  O      809.580     153.186     227.687
  C      811.670     153.261     226.330
  O      811.101     152.251     225.516
  C      811.629     154.696     225.786
  N      812.558     154.896     224.658
  C      812.029     154.786     223.386
  O      810.848     154.555     223.128
  N      812.936     154.911     222.361
  C      814.290     155.001     222.472
  O      815.032     155.009     221.526
  C      814.790     155.066     223.876
  C      813.914     155.043     224.889
  O      815.640     152.772     229.802
  O      814.418     154.624     231.145
  H      810.179     152.527     225.303
  H      813.571     155.076     231.321
  H      812.571     154.829     221.426
  H      815.857     155.131     224.006
  H      814.260     155.093     225.912
  H      810.630     154.967     225.457
  H      812.721     152.972     226.518
  H      811.393     152.682     228.383
  H      810.534     155.430     228.439
  H      812.848     155.891     229.313
  H      812.012     154.597     230.174
  P      808.810     152.271     228.743
  C      808.224     150.109     227.442
  O      807.779     151.344     227.950
  O      808.226     153.007     229.917
  O      809.930     151.233     229.245
  H      809.739     150.965     230.160
  H      807.615     149.854     226.558
  H      808.069     149.327     228.186
  H      809.270     150.140     227.154
  H      812.533     151.586     232.627
  H      813.064     153.247     232.750
  H      814.240     151.958     232.668

 3  4  5  6  7  8  9  10  11  12  13  23  28  29  30  31  32 0
 6-311+G(2d,p)
 ****
 33  34 0
 6-311+G(2d,p)
 ****
 1  2  14  15  16  17  18  19  20  21  22  24  25  26  27 0
 3-21G
 ****
 35  36  37  38  39  40  41  42  43  44  45 0
 3-21G
 ****


