%nproc=1
%NoSave
%Mem=1900MB
#P OB98/GEN NMR

erre ene a

0 1
  C      300.042     210.772    -891.960
  O      298.798     210.953    -892.650
  P      298.674     210.484    -894.180
  C      297.055     208.438    -894.240
  O      298.399     208.893    -894.250
  C      296.971     206.950    -894.640
  O      297.425     206.786    -896.030
  C      297.819     205.996    -893.770
  O      297.117     204.744    -893.740
  C      299.084     205.849    -894.610
  O      299.845     204.703    -894.260
  C      298.504     205.821    -896.020
  N      299.477     206.104    -897.090
  C      300.393     205.130    -897.400
  O      300.527     204.066    -896.780
  N      301.271     205.424    -898.410
  C      301.316     206.604    -899.130
  O      302.112     206.817    -900.000
  C      300.296     207.605    -898.730
  C      299.458     207.316    -897.740
  O      300.213     210.567    -894.680
  O      297.801     211.328    -895.050
  H      299.267     203.929    -894.370
  H      300.253     211.002    -895.550
  H      301.958     204.729    -898.640
  H      300.298     208.552    -899.280
  H      298.688     208.048    -897.460
  H      298.040     204.845    -896.200
  H      299.733     206.736    -894.430
  H      297.991     206.386    -892.770
  H      295.913     206.645    -894.640
  H      296.470     209.030    -894.940
  H      296.645     208.575    -893.230
  P      296.502     204.278    -892.320
  C      294.270     203.195    -893.140
  O      294.907     204.256    -892.480
  O      296.769     205.599    -891.430
  O      297.137     203.046    -891.740
  H      296.524     206.418    -891.910
  H      294.719     202.218    -892.870
  H      294.344     203.342    -894.220
  H      293.214     203.177    -892.840
  H      299.950     211.136    -890.958
  H      300.813     211.313    -892.467
  H      300.291     209.731    -891.940

 3  4  5  6  7  8  9  10  11  12  13  23  28  29  30  31  32 0
 6-311+G(2d,p)
 ****
 33  34 0
 6-311+G(2d,p)
 ****
 1  2  14  15  16  17  18  19  20  21  22  24  25  26 0
 3-21G
 ****
 27  35  36  37  38  39  40  41  42  43  44  45 0
 3-21G
 ****


