%nproc=1
%NoSave
%Mem=1900MB
#P OB98/GEN NMR

erre ene a

0 1
  C     -668.145     345.122     166.080
  O     -667.308     346.110     165.507
  H     -667.907     344.157     165.624
  H     -669.194     345.355     165.879
  H     -667.978     345.051     167.158
  P     -667.346     347.595     166.107
  C     -669.323     348.710     164.873
  O     -668.872     348.076     166.066
  C     -670.540     349.579     165.168
  O     -671.558     348.803     165.838
  C     -670.250     350.755     166.099
  O     -669.578     351.797     165.416
  C     -671.648     351.101     166.582
  O     -672.339     351.902     165.604
  C     -672.291     349.700     166.704
  N     -672.305     349.205     168.086
  C     -673.489     349.397     168.800
  O     -674.461     349.980     168.339
  N     -673.487     348.927     170.082
  C     -672.414     348.388     170.751
  O     -672.444     348.062     171.924
  C     -671.192     348.228     169.951
  C     -671.191     348.632     168.672
  O     -666.365     348.555     165.518
  O     -667.083     347.378     167.673
  H     -672.323     351.390     164.776
  H     -666.169     347.642     167.887
  H     -674.323     349.067     170.619
  H     -670.324     347.794     170.432
  H     -670.295     348.532     168.072
  H     -673.322     349.721     166.335
  H     -671.632     351.669     167.515
  H     -669.657     350.410     166.960
  H     -670.951     349.936     164.221
  H     -669.599     347.936     164.145
  H     -668.504     349.311     164.460
  P     -668.231     352.411     166.022
  C     -669.381     354.320     167.315
  O     -668.607     353.125     167.408
  O     -667.428     353.251     165.080
  O     -667.401     351.128     166.494
  H     -666.555     351.101     166.006
  H     -669.567     354.702     168.297
  H     -670.312     354.105     166.833
  H     -668.844     355.049     166.745

 6  7  8  9  10  11  12  13  14  15  16  26  31  32  33  34  35 0
 6-311+G(2d,p)
 ****
 36  37 0
 6-311+G(2d,p)
 ****
 1  2  3  4  5  17  18  19  20  21  22  23  24  25 0
 3-21G
 ****
 27  28  29  30  38  39  40  41  42  43  44  45 0
 3-21G
 ****


