%nproc=1
%NoSave
%Mem=1900MB
#P OB98/GEN NMR

erre ene a

0 1
  C       16.865     166.800      18.760
  O       16.803     165.605      17.979
  P       17.931     164.499      18.261
  C       17.143     162.519      16.786
  O       18.078     163.574      16.957
  C       15.847     163.006      16.125
  O       16.132     163.763      14.920
  C       14.898     161.871      15.734
  O       13.563     162.357      15.893
  C       15.175     161.689      14.254
  O       14.091     161.033      13.603
  C       15.416     163.147      13.829
  N       16.144     163.265      12.568
  C       15.394     163.208      11.393
  O       14.180     162.994      11.441
  N       16.034     163.352      10.188
  C       17.324     163.486      10.159
  N       17.902     163.620       8.934
  C       18.165     163.491      11.371
  C       17.514     163.382      12.527
  O       17.243     163.534      19.337
  O       19.211     165.069      18.781
  H       13.333     161.655      13.571
  H       17.845     163.389      20.090
  H       19.238     163.585      11.297
  H       18.042     163.379      13.470
  H       14.462     163.677      13.715
  H       16.083     161.092      14.110
  H       15.035     160.963      16.327
  H       15.343     163.683      16.825
  H       17.291     163.618       8.126
  H       16.904     162.075      17.755
  H       18.895     163.729       8.793
  H       17.610     161.724      16.195
  P       12.547     161.503      16.792
  C       10.971     163.023      18.134
  O       11.225     162.408      16.886
  O       13.170     161.701      18.258
  O       12.355     160.059      16.475
  H       12.675     161.164      18.901
  H       10.120     163.699      18.023
  H       11.841     163.599      18.460
  H       10.719     162.265      18.881
  H       16.064     167.452      18.479
  H       17.801     167.290      18.589
  H       16.776     166.553      19.797

 3  4  5  6  7  8  9  10  11  12  13  21  23  27  28  29  30  32 0
 6-311+G(2d,p)
 ****
 34  35 0
 6-311+G(2d,p)
 ****
 1  2  14  15  16  17  18  19  20  22  24  25  26 0
 3-21G
 ****
 31  33  36  37  38  39  40  41  42  43  44  45  46 0
 3-21G
 ****


