%nproc=1
%NoSave
%Mem=1900MB
#P OB98/GEN NMR

erre ene a

0 1
  C     -115.094     -48.835      33.900
  O     -115.283     -48.915      35.302
  P     -115.205     -50.372      35.974
  C     -114.582     -49.857      38.449
  O     -115.601     -50.195      37.516
  C     -115.204     -49.332      39.740
  O     -115.698     -47.992      39.543
  C     -116.397     -50.134      40.241
  O     -115.981     -51.347      40.846
  C     -117.028     -49.128      41.197
  O     -116.310     -49.112      42.441
  C     -116.818     -47.801      40.448
  N     -118.995     -43.996      37.804
  C     -117.832     -44.068      38.487
  N     -117.332     -45.109      39.184
  C     -118.163     -46.162      39.127
  C     -119.389     -46.229      38.490
  C     -119.805     -45.080      37.798
  N     -120.994     -45.009      37.106
  N     -119.968     -47.467      38.670
  C     -119.100     -48.140      39.394
  N     -117.986     -47.400      39.684
  O     -113.635     -50.666      36.026
  O     -115.953     -51.442      35.241
  H     -116.748     -48.458      43.021
  H     -113.454     -51.617      35.895
  H     -117.220     -43.170      38.471
  H     -119.230     -49.161      39.727
  H     -116.564     -46.974      41.120
  H     -118.076     -49.350      41.426
  H     -117.087     -50.350      39.416
  H     -114.418     -49.299      40.506
  H     -113.940     -49.079      38.023
  H     -121.283     -44.105      36.766
  H     -121.657     -45.766      37.222
  H     -113.970     -50.743      38.640
  P     -116.144     -52.692      39.986
  C     -113.770     -53.654      40.177
  O     -115.099     -53.708      40.663
  O     -115.412     -52.295      38.623
  O     -117.542     -53.188      39.855
  H     -114.542     -51.889      38.779
  H     -113.159     -54.351      40.755
  H     -113.365     -52.644      40.294
  H     -113.743     -53.948      39.125
  H     -115.171     -47.815      33.587
  H     -115.843     -49.417      33.405
  H     -114.125     -49.213      33.649

 3  4  5  6  7  8  9  10  11  12  22  25  29  30  31  32 0
 6-311+G(2d,p)
 ****
 33  36  37 0
 6-311+G(2d,p)
 ****
 1  2  13  14  15  16  17  18  19  20  21  23  24  26 0
 3-21G
 ****
 27  28  34  35  38  39  40  41  42  43  44  45  46  47  48 0
 3-21G
 ****


