%nproc=1
%NoSave
%Mem=1900MB
#P OB98/GEN NMR

erre ene a

0 1
  C      315.714      62.188      11.183
  O      316.273      63.124      10.280
  P      316.229      64.675      10.686
  C      318.359      65.446       9.423
  O      316.941      65.487       9.505
  C      318.887      66.360       8.313
  O      318.317      65.929       7.047
  C      318.549      67.836       8.502
  O      319.665      68.607       8.035
  C      317.374      68.055       7.567
  O      317.260      69.423       7.176
  C      317.715      67.081       6.430
  N      316.536      66.706       5.648
  C      316.363      67.327       4.407
  O      317.159      68.208       4.052
  N      315.294      66.989       3.628
  C      314.396      66.169       4.095
  N      313.345      65.859       3.291
  C      314.461      65.585       5.457
  C      315.558      65.881       6.155
  O      317.287      64.763      11.889
  O      314.873      65.171      11.094
  H      317.250      69.976       7.986
  H      317.020      65.441      12.541
  H      313.665      64.945       5.809
  H      315.703      65.474       7.159
  H      318.447      67.521       5.747
  H      316.440      67.762       8.068
  H      318.336      68.097       9.547
  H      319.975      66.218       8.244
  H      313.316      66.281       2.369
  H      318.677      64.422       9.210
  H      312.603      65.233       3.570
  H      318.779      65.742      10.395
  P      320.233      69.764       8.991
  C      322.571      70.238       8.029
  O      321.211      70.625       8.063
  O      321.281      68.937       9.891
  O      319.267      70.508       9.853
  H      321.665      69.527      10.571
  H      323.083      70.818       7.268
  H      322.658      69.178       7.804
  H      323.043      70.444       9.013
  H      315.815      61.201      10.782
  H      314.677      62.409      11.330
  H      316.227      62.246      12.120

 3  4  5  6  7  8  9  10  11  12  13  21  23  27  28  29  30  32 0
 6-311+G(2d,p)
 ****
 34  35 0
 6-311+G(2d,p)
 ****
 1  2  14  15  16  17  18  19  20  22  24  25  26 0
 3-21G
 ****
 31  33  36  37  38  39  40  41  42  43  44  45  46 0
 3-21G
 ****


