%nproc=1
%NoSave
%Mem=1900MB
#P OB98/GEN NMR

erre ene a

0 1
  C      227.019    -287.364    -212.568
  O      228.201    -287.234    -211.773
  P      229.382    -288.301    -211.948
  C      229.021    -289.698    -209.809
  O      228.962    -289.676    -211.228
  C      228.409    -290.997    -209.248
  O      229.356    -292.091    -209.419
  C      228.063    -290.900    -207.757
  O      226.723    -291.324    -207.472
  C      229.167    -291.702    -207.084
  O      228.784    -292.190    -205.808
  C      229.538    -292.746    -208.147
  N      230.892    -293.259    -207.964
  C      231.007    -294.602    -207.644
  O      230.047    -295.334    -207.429
  N      232.290    -295.068    -207.493
  C      233.430    -294.322    -207.563
  O      234.550    -294.785    -207.385
  C      233.242    -292.891    -207.843
  C      231.999    -292.428    -208.031
  O      230.750    -287.812    -211.609
  O      229.289    -288.686    -213.504
  H      227.953    -292.737    -205.916
  H      230.204    -288.796    -213.848
  H      232.390    -296.056    -207.280
  H      234.110    -292.263    -207.885
  H      231.823    -291.382    -208.218
  H      228.849    -293.596    -208.103
  H      230.025    -291.042    -206.927
  H      228.099    -289.867    -207.399
  H      227.526    -291.217    -209.851
  H      228.476    -288.843    -209.402
  H      230.068    -289.579    -209.488
  P      225.559    -290.342    -206.974
  C      225.471    -290.382    -204.387
  O      225.965    -289.739    -205.551
  O      224.173    -290.886    -207.050
  O      225.706    -289.086    -207.970
  H      224.813    -288.762    -208.217
  H      225.522    -289.663    -203.560
  H      226.106    -291.242    -204.153
  H      224.433    -290.704    -204.511
  H      226.338    -286.575    -212.326
  H      226.557    -288.308    -212.368
  H      227.278    -287.306    -213.605

 3  4  5  6  7  8  9  10  11  12  13  23  28  29  30  31  32 0
 6-311+G(2d,p)
 ****
 33  34 0
 6-311+G(2d,p)
 ****
 1  2  14  15  16  17  18  19  20  21  22  24  25  26  27 0
 3-21G
 ****
 35  36  37  38  39  40  41  42  43  44  45 0
 3-21G
 ****


