%nproc=1
%NoSave
%Mem=1900MB
#P OB98/GEN NMR

erre ene a

0 1
  C      612.311     440.011    1073.898
  O      611.149     439.197    1074.104
  P      609.697     439.825    1074.386
  C      608.954     439.567    1076.846
  O      609.655     440.364    1075.913
  C      609.237     440.001    1078.286
  O      610.573     439.607    1078.695
  C      609.128     441.513    1078.519
  O      607.808     441.919    1078.620
  C      609.965     441.663    1079.805
  O      609.191     441.319    1080.980
  C      611.095     440.606    1079.589
  N      615.898     441.990    1080.727
  C      614.922     441.375    1081.470
  N      613.669     441.066    1081.090
  C      613.462     441.391    1079.807
  C      614.337     441.981    1078.925
  C      615.631     442.276    1079.428
  N      616.617     442.899    1078.699
  N      613.790     442.175    1077.685
  C      612.559     441.668    1077.807
  N      612.318     441.186    1079.076
  O      608.565     438.916    1074.048
  O      609.653     441.161    1073.517
  H      608.463     441.955    1081.024
  H      608.740     441.355    1073.265
  H      615.180     441.156    1082.496
  H      611.810     441.664    1077.006
  H      611.347     440.088    1080.534
  H      610.346     442.670    1079.943
  H      609.648     442.037    1077.704
  H      608.537     439.479    1078.944
  H      609.269     438.503    1076.713
  H      617.498     443.109    1079.138
  H      616.406     443.190    1077.751
  H      607.883     439.629    1076.651
  P      607.047     442.552    1077.372
  C      607.756     444.888    1078.197
  O      607.717     443.986    1077.086
  O      605.548     442.537    1077.441
  O      607.587     441.693    1076.122
  H      606.897     441.637    1075.430
  H      606.779     445.360    1078.330
  H      608.512     445.639    1077.995
  H      608.053     444.358    1079.116
  H      613.161     439.383    1073.729
  H      612.481     440.616    1074.764
  H      612.159     440.641    1073.047

 3  4  5  6  7  8  9  10  11  12  22  25  29  30  31  32 0
 6-311+G(2d,p)
 ****
 33  36  37 0
 6-311+G(2d,p)
 ****
 1  2  13  14  15  16  17  18  19  20  21  23  24  26 0
 3-21G
 ****
 27  28  34  35  38  39  40  41  42  43  44  45  46  47  48 0
 3-21G
 ****


