%nproc=1
%NoSave
%Mem=1900MB
#P OB98/GEN NMR

erre ene a

0 1
  C     -208.229      20.635     -56.939
  O     -207.279      21.315     -56.142
  H     -209.211      21.091     -56.782
  H     -208.279      19.585     -56.642
  H     -207.975      20.709     -58.000
  P     -205.720      21.031     -56.378
  C     -205.169      23.496     -56.906
  O     -204.945      22.394     -56.037
  C     -204.107      24.580     -56.690
  O     -204.452      25.330     -55.483
  C     -202.678      24.031     -56.498
  O     -201.771      25.002     -57.041
  C     -202.586      23.984     -54.983
  O     -201.263      23.820     -54.545
  C     -203.283      25.304     -54.639
  N     -203.642      25.423     -53.231
  C     -203.186      26.544     -52.545
  O     -202.520      27.441     -53.064
  N     -203.511      26.604     -51.216
  C     -204.225      25.669     -50.523
  O     -204.507      25.782     -49.336
  C     -204.655      24.490     -51.296
  C     -204.349      24.423     -52.593
  O     -205.365      20.415     -57.690
  O     -205.321      20.076     -55.154
  H     -205.329      19.146     -55.449
  H     -200.742      24.636     -54.707
  H     -203.188      27.409     -50.704
  H     -205.204      23.721     -50.769
  H     -204.648      23.569     -53.193
  H     -202.659      26.158     -54.922
  H     -203.155      23.134     -54.595
  H     -202.523      23.066     -56.989
  H     -204.150      25.288     -57.527
  H     -206.165      23.901     -56.694
  H     -205.140      23.146     -57.944
  P     -200.891      24.744     -58.360
  C     -201.698      26.779     -59.720
  O     -200.596      26.146     -59.086
  O     -201.472      23.712     -59.275
  O     -199.453      24.277     -57.831
  H     -199.087      23.609     -58.441
  H     -201.375      27.698     -60.163
  H     -202.459      26.981     -58.995
  H     -202.091      26.135     -60.479

 6  7  8  9  10  11  12  13  14  15  16  27  31  32  33  34  35 0
 6-311+G(2d,p)
 ****
 36  37 0
 6-311+G(2d,p)
 ****
 1  2  3  4  5  17  18  19  20  21  22  23  24  25 0
 3-21G
 ****
 26  28  29  30  38  39  40  41  42  43  44  45 0
 3-21G
 ****


