%nproc=1
%NoSave
%Mem=1900MB
#P OB98/GEN NMR

erre ene a

0 1
  C       -8.393     153.058     275.335
  O       -7.986     151.714     275.170
  H       -9.021     153.157     276.226
  H       -7.503     153.684     275.461
  H       -8.946     153.398     274.452
  P       -9.151     150.623     275.006
  C       -9.166     151.371     272.511
  O       -9.929     151.039     273.662
  C      -10.097     151.514     271.314
  O       -9.388     152.109     270.202
  C      -10.640     150.188     270.794
  O      -11.758     149.729     271.538
  C      -11.039     150.579     269.381
  O      -12.277     151.317     269.411
  C       -9.881     151.505     268.977
  N       -7.860     150.169     264.467
  C       -8.934     150.919     264.783
  N       -9.393     151.247     266.012
  C       -8.612     150.721     266.967
  C       -7.481     149.937     266.793
  C       -7.106     149.657     265.466
  N       -6.032     148.863     265.140
  N       -6.957     149.565     268.016
  C       -7.750     150.124     268.907
  N       -8.782     150.808     268.322
  O      -10.195     151.002     276.159
  O       -8.720     149.194     275.054
  H      -12.984     150.682     269.616
  H      -10.830     150.273     276.296
  H       -9.502     151.309     263.943
  H       -7.623     150.058     269.981
  H      -10.197     152.314     268.308
  H      -11.195     149.716     268.731
  H       -9.854     149.423     270.745
  H      -10.912     152.196     271.591
  H       -8.440     150.571     272.323
  H       -5.932     148.599     264.171
  H       -5.555     148.360     265.874
  H       -8.628     152.307     272.691
  P      -12.244     148.217     271.285
  C      -10.290     147.291     272.725
  O      -10.945     147.291     271.463
  O      -12.506     148.183     269.709
  O      -13.447     147.812     272.072
  H      -13.233     147.569     269.489
  H       -9.448     146.631     272.690
  H      -10.972     146.960     273.481
  H       -9.957     148.282     272.954

 6  7  8  9  10  11  12  13  14  15  25  28  32  33  34  35 0
 6-311+G(2d,p)
 ****
 36  39  40 0
 6-311+G(2d,p)
 ****
 1  2  3  4  5  16  17  18  19  20  21  22  23  24 0
 3-21G
 ****
 26  27  29  30  31  37  38  41  42  43  44  45  46  47 0
 3-21G
 ****
 48 0
 3-21G
 ****


