%nproc=1
%NoSave
%Mem=1900MB
#P OB98/GEN NMR

erre ene a

0 1
  C       71.484     127.995     111.303
  O       72.854     127.664     111.406
  H       71.391     129.081     111.215
  H       70.937     127.668     112.191
  H       71.052     127.534     110.410
  P       73.261     126.145     111.706
  C       73.503     124.688     113.818
  O       73.020     125.911     113.277
  C       72.781     124.352     115.123
  O       73.196     125.303     116.140
  C       71.253     124.407     115.013
  O       70.706     123.359     115.816
  C       70.926     125.761     115.607
  O       69.597     125.811     116.089
  C       72.011     125.919     116.677
  N       72.226     127.328     117.007
  C       71.661     127.780     118.205
  O       71.032     127.008     118.928
  N       71.760     129.111     118.524
  C       72.326     129.931     117.694
  N       72.356     131.243     118.054
  C       72.913     129.502     116.409
  C       72.829     128.200     116.132
  O       74.601     125.712     111.211
  O       72.084     125.297     111.029
  H       69.371     126.734     116.324
  H       72.318     125.078     110.107
  H       73.366     130.226     115.750
  H       73.222     127.796     115.205
  H       71.735     125.380     117.593
  H       71.037     126.538     114.838
  H       70.896     124.314     113.983
  H       73.114     123.361     115.461
  H       71.922     131.493     118.935
  H       74.574     124.806     114.011
  H       72.730     131.978     117.474
  H       73.362     123.881     113.092
  P       69.964     122.107     115.135
  C       67.594     121.430     114.445
  O       68.445     122.513     114.806
  O       70.116     120.815     115.870
  O       70.641     122.009     113.684
  H       70.636     121.077     113.390
  H       66.610     121.800     114.246
  H       67.554     120.725     115.249
  H       67.978     120.951     113.569

 6  7  8  9  10  11  12  13  14  15  16  26  30  31  32  33  35 0
 6-311+G(2d,p)
 ****
 37  38 0
 6-311+G(2d,p)
 ****
 1  2  3  4  5  17  18  19  20  21  22  23  24  25 0
 3-21G
 ****
 27  28  29  34  36  39  40  41  42  43  44  45  46 0
 3-21G
 ****


