%nproc=1
%NoSave
%Mem=1900MB
#P OB98/GEN NMR

erre ene a

0 1
  C     -118.832      32.520      -2.512
  O     -119.353      32.915      -3.768
  P     -118.361      33.280      -4.969
  C     -118.098      35.725      -4.115
  O     -117.465      34.516      -4.478
  C     -117.120      36.671      -3.408
  O     -116.465      35.926      -2.352
  C     -116.000      37.213      -4.291
  O     -115.437      38.364      -3.656
  C     -115.001      36.077      -4.259
  O     -113.691      36.499      -4.626
  C     -115.146      35.543      -2.812
  N     -114.990      34.078      -2.756
  C     -113.778      33.592      -2.273
  O     -112.892      34.323      -1.831
  N     -113.584      32.243      -2.393
  C     -114.452      31.371      -2.981
  O     -114.143      30.245      -3.355
  C     -115.799      31.900      -3.250
  C     -115.997      33.217      -3.152
  O     -119.342      33.926      -6.056
  O     -117.596      32.128      -5.526
  H     -113.107      35.708      -4.554
  H     -119.602      33.256      -6.715
  H     -112.651      31.911      -2.176
  H     -116.563      31.208      -3.577
  H     -116.967      33.643      -3.395
  H     -114.398      35.988      -2.144
  H     -115.313      35.307      -4.977
  H     -116.311      37.457      -5.310
  H     -117.679      37.493      -2.944
  H     -118.955      35.505      -3.472
  H     -118.499      36.227      -5.003
  P     -115.188      39.670      -4.555
  C     -112.759      38.838      -4.650
  O     -113.836      39.401      -5.375
  O     -115.258      40.978      -3.841
  O     -116.317      39.548      -5.688
  H     -116.457      40.417      -6.107
  H     -112.145      38.247      -5.335
  H     -113.114      38.192      -3.843
  H     -112.150      39.643      -4.231
  H     -119.639      32.318      -1.839
  H     -118.225      33.306      -2.115
  H     -118.239      31.638      -2.633

 3  4  5  6  7  8  9  10  11  12  13  23  28  29  30  31  32 0
 6-311+G(2d,p)
 ****
 33  34 0
 6-311+G(2d,p)
 ****
 1  2  14  15  16  17  18  19  20  21  22  24  25  26  27 0
 3-21G
 ****
 35  36  37  38  39  40  41  42  43  44  45 0
 3-21G
 ****


