%nproc=1
%NoSave
%Mem=1900MB
#P OB98/GEN NMR

erre ene a

0 1
  C       31.730     186.748      48.777
  O       30.845     185.795      49.328
  H       31.987     186.438      47.761
  H       32.646     186.806      49.368
  H       31.252     187.731      48.731
  P       30.361     185.979      50.844
  C       27.843     186.404      50.470
  O       28.836     185.482      50.907
  C       26.653     185.650      49.868
  O       27.039     185.199      48.547
  C       26.252     184.423      50.699
  O       24.869     184.406      51.043
  C       26.790     183.255      49.881
  O       26.106     182.035      50.072
  C       26.752     183.792      48.445
  N       27.697     183.136      47.543
  C       27.226     182.056      46.803
  O       26.076     181.625      46.831
  N       28.147     181.457      45.982
  C       29.453     181.817      45.840
  O       30.229     181.245      45.084
  C       29.896     182.951      46.665
  C       29.011     183.549      47.467
  O       30.604     187.324      51.441
  O       31.145     184.833      51.642
  H       26.488     181.379      49.453
  H       31.897     185.226      52.122
  H       27.815     180.679      45.433
  H       30.929     183.258      46.585
  H       29.304     184.390      48.088
  H       25.754     183.678      48.021
  H       27.835     183.086      50.171
  H       26.753     184.432      51.674
  H       25.816     186.349      49.747
  H       28.297     187.058      49.720
  H       27.507     187.012      51.318
  P       24.227     183.494      52.184
  C       23.415     185.364      53.832
  O       23.079     184.338      52.910
  O       25.199     182.779      53.061
  O       23.410     182.379      51.351
  H       23.445     181.555      51.881
  H       22.519     185.811      54.210
  H       24.004     186.108      53.338
  H       23.975     184.946      54.643

 6  7  8  9  10  11  12  13  14  15  16  26  31  32  33  34  35 0
 6-311+G(2d,p)
 ****
 36  37 0
 6-311+G(2d,p)
 ****
 1  2  3  4  5  17  18  19  20  21  22  23  24  25 0
 3-21G
 ****
 27  28  29  30  38  39  40  41  42  43  44  45 0
 3-21G
 ****


