%nproc=1
%NoSave
%Mem=1900MB
#P OB98/GEN NMR

erre ene a

0 1
  C      570.102     254.645    -307.716
  O      570.307     256.021    -307.965
  H      570.673     254.363    -306.826
  H      570.454     254.046    -308.558
  H      569.043     254.440    -307.531
  P      569.573     256.678    -309.228
  C      568.684     258.342    -307.460
  O      569.182     258.172    -308.783
  C      569.430     259.470    -306.765
  O      570.780     259.076    -306.468
  C      569.527     260.755    -307.592
  O      568.327     261.497    -307.496
  C      570.710     261.430    -306.915
  O      570.289     262.015    -305.671
  C      571.641     260.235    -306.655
  N      575.602     261.960    -309.306
  C      574.866     262.570    -308.311
  N      575.213     263.845    -308.006
  N      573.873     261.999    -307.686
  C      573.599     260.757    -308.145
  C      574.239     260.053    -309.130
  C      575.380     260.676    -309.778
  O      576.064     260.166    -310.653
  N      573.635     258.847    -309.364
  C      572.653     258.801    -308.487
  N      572.579     259.948    -307.733
  O      568.432     255.902    -309.811
  O      570.750     256.907    -310.285
  H      570.150     261.280    -305.046
  H      570.832     256.145    -310.891
  H      576.347     262.462    -309.767
  H      571.966     257.971    -308.363
  H      572.231     260.360    -305.738
  H      571.150     262.224    -307.515
  H      575.766     264.413    -308.637
  H      569.798     260.546    -308.637
  H      574.659     264.328    -307.311
  H      568.935     259.662    -305.805
  H      568.832     257.393    -306.926
  H      567.612     258.567    -307.483
  P      568.091     262.815    -308.388
  C      567.395     261.487    -310.496
  O      566.988     262.393    -309.470
  O      569.331     263.410    -308.964
  O      567.283     263.808    -307.437
  H      567.863     264.380    -306.874
  H      566.569     261.290    -311.146
  H      567.726     260.571    -310.052
  H      568.196     261.921    -311.058

 6  7  8  9  10  11  12  13  14  15  26  29  33  34 0
 6-311+G(2d,p)
 ****
 36  38  39  40  41 0
 6-311+G(2d,p)
 ****
 1  2  3  4  5  16  17  18  19  20  21  22  23  24  25 0
 3-21G
 ****
 27  28  30  31  32  35  37  42  43  44  45  46  47 0
 3-21G
 ****
 48  49 0
 3-21G
 ****


