%nproc=1
%NoSave
%Mem=1900MB
#P OB98/GEN NMR

erre ene a

0 1
  C       50.502    -258.712    1102.801
  O       50.828    -259.347    1104.020
  P       51.582    -258.552    1105.181
  C       52.029    -258.982    1107.679
  O       51.209    -259.279    1106.553
  C       51.692    -259.924    1108.843
  O       50.371    -259.628    1109.383
  C       51.616    -261.388    1108.459
  O       52.825    -262.010    1108.061
  C       50.909    -261.973    1109.665
  O       51.812    -262.193    1110.758
  C       49.901    -260.845    1110.006
  N       48.534    -261.183    1109.602
  C       47.767    -261.837    1110.550
  O       48.169    -262.118    1111.696
  N       46.492    -262.183    1110.168
  C       45.945    -261.977    1108.926
  O       44.831    -262.357    1108.614
  C       46.833    -261.311    1107.952
  C       48.067    -260.940    1108.323
  O       51.374    -257.069    1105.184
  O       53.118    -258.977    1104.975
  H       51.265    -262.295    1111.561
  H       53.287    -259.920    1105.055
  H       45.909    -262.661    1110.853
  H       46.422    -261.125    1106.957
  H       48.718    -260.447    1107.637
  H       49.903    -260.663    1111.100
  H       50.442    -262.949    1109.431
  H       50.949    -261.495    1107.614
  H       52.410    -259.736    1109.645
  H       51.839    -257.941    1107.995
  H       53.090    -259.071    1107.402
  P       52.909    -263.495    1107.473
  C       54.549    -264.864    1105.980
  O       54.153    -263.587    1106.460
  O       51.597    -264.102    1107.040
  O       53.469    -264.320    1108.746
  H       53.097    -265.219    1108.708
  H       55.417    -264.723    1105.339
  H       53.752    -265.312    1105.374
  H       54.813    -265.523    1106.814
  H       50.004    -259.408    1102.159
  H       51.398    -258.368    1102.328
  H       49.858    -257.880    1102.994

 3  4  5  6  7  8  9  10  11  12  13  23  28  29  30  31  32 0
 6-311+G(2d,p)
 ****
 33  34 0
 6-311+G(2d,p)
 ****
 1  2  14  15  16  17  18  19  20  21  22  24  25  26  27 0
 3-21G
 ****
 35  36  37  38  39  40  41  42  43  44  45 0
 3-21G
 ****


