%nproc=1
%NoSave
%Mem=1900MB
#P OB98/GEN NMR

erre ene a

0 1
  C      -70.109       3.027     400.222
  O      -71.309       3.314     400.944
  P      -72.692       3.134     400.150
  C      -73.657       5.452     400.791
  O      -73.811       4.041     400.857
  C      -73.806       6.108     402.171
  O      -75.124       5.857     402.724
  C      -72.783       5.611     403.195
  O      -72.473       6.708     404.057
  C      -73.564       4.578     403.985
  O      -72.970       4.344     405.258
  C      -74.953       5.235     404.014
  N      -76.029       4.292     404.308
  C      -75.881       3.492     405.442
  O      -74.844       3.545     406.108
  N      -76.885       2.617     405.774
  C      -77.927       2.514     405.006
  N      -78.888       1.628     405.386
  C      -78.099       3.298     403.768
  C      -77.125       4.160     403.487
  O      -73.132       1.638     400.506
  O      -72.559       3.326     398.672
  H      -72.791       5.213     405.675
  H      -73.361       1.155     399.690
  H      -78.975       3.164     403.149
  H      -77.163       4.779     402.603
  H      -74.988       6.029     404.774
  H      -73.599       3.629     403.436
  H      -71.865       5.222     402.743
  H      -73.705       7.192     402.044
  H      -78.737       1.115     406.247
  H      -74.403       5.874     400.114
  H      -79.735       1.466     404.866
  H      -72.683       5.684     400.351
  P      -71.001       7.334     403.989
  C      -70.160       6.231     406.151
  O      -70.530       7.443     405.520
  O      -71.320       8.870     403.650
  O      -70.024       6.757     403.022
  H      -70.489       9.356     403.510
  H      -69.747       6.461     407.136
  H      -69.402       5.707     405.563
  H      -71.042       5.595     406.281
  H      -69.263       3.185     400.859
  H      -70.041       3.673     399.372
  H      -70.124       2.008     399.895

 3  4  5  6  7  8  9  10  11  12  13  21  23  27  28  29  30  32 0
 6-311+G(2d,p)
 ****
 34  35 0
 6-311+G(2d,p)
 ****
 1  2  14  15  16  17  18  19  20  22  24  25  26 0
 3-21G
 ****
 31  33  36  37  38  39  40  41  42  43  44  45  46 0
 3-21G
 ****


