%nproc=1
%NoSave
%Mem=1900MB
#P OB98/GEN NMR

erre ene a

0 1
  C      136.649     422.252     227.379
  O      136.452     422.916     228.630
  P      134.955     423.060     229.199
  C      134.589     425.568     228.722
  O      134.210     424.235     228.399
  C      133.757     426.581     227.920
  O      132.330     426.382     228.167
  C      134.077     428.032     228.301
  O      133.930     428.890     227.149
  C      132.970     428.381     229.274
  O      132.795     429.794     229.389
  C      131.791     427.626     228.653
  N      126.720     427.652     229.345
  C      127.477     427.879     228.250
  N      128.821     427.826     228.137
  C      129.381     427.505     229.312
  C      128.732     427.239     230.510
  C      127.334     427.339     230.503
  N      126.564     427.147     231.631
  N      129.655     426.946     231.499
  C      130.820     427.072     230.930
  N      130.716     427.380     229.599
  O      134.832     423.139     230.683
  O      134.229     421.746     228.631
  H      133.626     430.162     229.758
  H      133.657     421.370     229.335
  H      126.930     428.133     227.347
  H      131.782     426.975     231.430
  H      131.370     428.162     227.801
  H      133.227     427.984     230.271
  H      135.074     428.182     228.728
  H      133.921     426.407     226.853
  H      135.651     425.707     228.503
  H      125.576     427.345     231.562
  H      127.019     427.044     232.529
  H      134.478     425.719     229.798
  P      135.266     429.127     226.286
  C      136.561     430.830     227.794
  O      136.418     429.504     227.333
  O      135.080     430.079     225.148
  O      135.623     427.636     225.809
  H      135.641     426.980     226.536
  H      137.307     430.845     228.595
  H      135.617     431.208     228.194
  H      136.897     431.469     226.976
  H      137.692     422.239     227.142
  H      136.115     422.772     226.611
  H      136.287     421.248     227.447

 3  4  5  6  7  8  9  10  11  12  22  25  29  30  31  32 0
 6-311+G(2d,p)
 ****
 33  36  37 0
 6-311+G(2d,p)
 ****
 1  2  13  14  15  16  17  18  19  20  21  23  24  26 0
 3-21G
 ****
 27  28  34  35  38  39  40  41  42  43  44  45  46  47  48 0
 3-21G
 ****


