%nproc=1
%NoSave
%Mem=1900MB
#P OB98/GEN NMR

erre ene a

0 1
  C     -387.928     -48.293     310.371
  O     -388.104     -49.685     310.517
  H     -387.335     -48.106     309.471
  H     -387.387     -47.892     311.233
  H     -388.893     -47.789     310.269
  P     -389.081     -50.188     311.689
  C     -387.735     -52.295     312.391
  O     -388.907     -51.782     311.776
  C     -387.850     -53.810     312.577
  O     -387.623     -54.456     311.298
  C     -386.845     -54.382     313.581
  O     -387.489     -55.420     314.328
  C     -385.764     -54.989     312.700
  O     -385.046     -56.036     313.353
  C     -386.576     -55.428     311.475
  N     -385.730     -55.539     310.287
  C     -384.925     -56.676     310.195
  O     -384.937     -57.519     311.095
  N     -384.076     -56.805     309.125
  C     -383.985     -55.841     308.262
  N     -383.103     -56.016     307.237
  C     -384.765     -54.591     308.356
  C     -385.613     -54.513     309.378
  O     -390.539     -50.011     311.055
  O     -388.934     -49.476     312.991
  H     -385.678     -56.751     313.572
  H     -391.199     -49.797     311.744
  H     -384.631     -53.807     307.630
  H     -386.228     -53.634     309.533
  H     -387.053     -56.399     311.658
  H     -385.044     -54.212     312.419
  H     -386.447     -53.634     314.268
  H     -388.880     -54.043     312.876
  H     -382.572     -56.876     307.221
  H     -387.611     -51.824     313.371
  H     -382.912     -55.309     306.537
  H     -386.865     -52.052     311.773
  P     -387.491     -55.260     315.923
  C     -387.625     -57.816     316.390
  O     -388.233     -56.540     316.551
  O     -388.517     -54.063     316.175
  O     -386.140     -54.968     316.499
  H     -388.032     -53.264     316.457
  H     -388.232     -58.562     316.858
  H     -386.656     -57.809     316.843
  H     -387.529     -58.037     315.347

 6  7  8  9  10  11  12  13  14  15  16  26  30  31  32  33  35 0
 6-311+G(2d,p)
 ****
 37  38 0
 6-311+G(2d,p)
 ****
 1  2  3  4  5  17  18  19  20  21  22  23  24  25 0
 3-21G
 ****
 27  28  29  34  36  39  40  41  42  43  44  45  46 0
 3-21G
 ****


