%nproc=1
%NoSave
%Mem=1900MB
#P OB98/GEN NMR

erre ene a

0 1
  C      -51.287     148.721    1067.633
  O      -52.063     149.860    1067.947
  P      -53.629     149.715    1068.254
  C      -54.127     150.223    1065.768
  O      -54.392     150.577    1067.130
  C      -55.368     150.449    1064.926
  O      -56.488     149.652    1065.416
  C      -55.894     151.888    1064.941
  O      -55.071     152.882    1064.353
  C      -57.272     151.699    1064.349
  O      -57.261     151.616    1062.928
  C      -57.690     150.336    1064.962
  N      -58.661     150.482    1066.063
  C      -59.987     150.620    1065.681
  O      -60.361     150.604    1064.510
  N      -60.897     150.789    1066.709
  C      -60.592     150.907    1068.026
  O      -61.430     151.103    1068.892
  C      -59.156     150.763    1068.361
  C      -58.264     150.561    1067.392
  O      -54.040     150.026    1069.669
  O      -53.963     148.210    1067.800
  H      -56.859     152.440    1062.588
  H      -53.781     148.008    1066.858
  H      -61.860     150.905    1066.448
  H      -58.890     150.827    1069.408
  H      -57.215     150.468    1067.604
  H      -58.160     149.685    1064.195
  H      -57.942     152.539    1064.619
  H      -56.019     152.185    1065.988
  H      -55.154     150.097    1063.896
  H      -53.852     149.174    1065.731
  H      -53.272     150.806    1065.392
  P      -54.894     154.336    1064.973
  C      -57.279     155.326    1064.596
  O      -55.902     155.340    1064.219
  O      -53.484     154.826    1065.161
  O      -55.608     154.172    1066.407
  H      -55.150     154.768    1067.060
  H      -57.835     156.011    1063.947
  H      -57.379     155.633    1065.637
  H      -57.683     154.321    1064.476
  H      -50.273     149.017    1067.461
  H      -51.677     148.256    1066.752
  H      -51.324     148.029    1068.448

 3  4  5  6  7  8  9  10  11  12  13  23  28  29  30  31  32 0
 6-311+G(2d,p)
 ****
 33  34 0
 6-311+G(2d,p)
 ****
 1  2  14  15  16  17  18  19  20  21  22  24  25  26  27 0
 3-21G
 ****
 35  36  37  38  39  40  41  42  43  44  45 0
 3-21G
 ****


