%nproc=1
%NoSave
%Mem=1900MB
#P OB98/GEN NMR

erre ene a

0 1
  C      344.830     993.686     181.228
  O      345.046     995.079     181.345
  H      343.901     993.430     181.749
  H      345.654     993.133     181.690
  H      344.737     993.406     180.177
  P      346.422     995.635     180.738
  C      345.430     996.577     178.516
  O      346.192     995.555     179.150
  C      345.711     996.570     177.011
  O      347.131     996.678     176.757
  C      345.271     995.297     176.305
  O      343.875     995.266     176.048
  C      346.073     995.405     175.026
  O      345.470     996.382     174.149
  C      347.431     995.920     175.565
  N      348.371     994.839     175.868
  C      349.501     994.743     175.045
  O      349.673     995.529     174.115
  N      350.400     993.733     175.281
  C      350.206     992.896     176.251
  N      351.124     991.903     176.429
  C      349.042     992.966     177.149
  C      348.174     993.953     176.904
  O      347.459     994.441     180.996
  O      346.876     996.970     181.243
  H      345.428     997.220     174.645
  H      348.319     994.638     180.541
  H      348.906     992.245     177.946
  H      347.291     994.064     177.521
  H      347.906     996.601     174.852
  H      346.133     994.467     174.461
  H      345.595     994.402     176.847
  H      345.232     997.458     176.579
  H      351.878     991.842     175.759
  H      345.715     997.539     178.946
  H      350.952     991.112     177.036
  H      344.365     996.408     178.683
  P      343.095     993.895     176.366
  C      341.587     995.007     178.168
  O      342.560     994.005     177.879
  O      344.270     992.817     176.478
  O      342.067     993.506     175.349
  H      344.013     991.971     176.082
  H      341.327     994.963     179.205
  H      340.714     994.838     177.573
  H      341.991     995.972     177.943

 6  7  8  9  10  11  12  13  14  15  16  26  30  31  32  33  35 0
 6-311+G(2d,p)
 ****
 37  38 0
 6-311+G(2d,p)
 ****
 1  2  3  4  5  17  18  19  20  21  22  23  24  25 0
 3-21G
 ****
 27  28  29  34  36  39  40  41  42  43  44  45  46 0
 3-21G
 ****


