%nproc=1
%NoSave
%Mem=1900MB
#P OB98/GEN NMR

erre ene a

0 1
  C      109.345     -60.224     -23.863
  O      109.130     -61.092     -22.774
  P      108.538     -60.619     -21.369
  C      110.942     -60.559     -20.338
  O      109.703     -59.889     -20.544
  C      111.834     -59.778     -19.361
  O      111.864     -58.387     -19.775
  C      111.268     -59.807     -17.933
  O      112.252     -59.990     -16.920
  C      110.432     -58.536     -17.872
  O      110.167     -58.091     -16.549
  C      111.250     -57.586     -18.742
  N      107.577     -54.115     -18.202
  C      108.218     -54.858     -17.232
  N      107.688     -54.800     -15.990
  N      109.259     -55.617     -17.473
  C      109.605     -55.662     -18.782
  C      109.045     -54.969     -19.831
  C      107.919     -54.109     -19.543
  O      107.248     -53.519     -20.392
  N      109.608     -55.315     -21.029
  C      110.490     -56.245     -20.714
  N      110.497     -56.514     -19.364
  O      107.672     -61.600     -20.645
  O      107.606     -59.376     -21.807
  H      109.826     -57.179     -16.609
  H      106.836     -59.366     -21.202
  H      106.727     -53.611     -17.968
  H      111.118     -56.776     -21.419
  H      112.046     -57.104     -18.174
  H      109.464     -58.754     -18.331
  H      106.805     -54.345     -15.808
  H      110.607     -60.672     -17.800
  H      107.978     -55.518     -15.330
  H      112.857     -60.167     -19.418
  H      111.424     -60.620     -21.322
  H      110.776     -61.576     -19.982
  P      112.258     -61.022     -15.703
  C      111.299     -59.303     -14.058
  O      111.133     -60.576     -14.651
  O      113.617     -60.727     -14.915
  O      112.192     -62.459     -16.103
  H      114.010     -61.571     -14.613
  H      110.646     -59.237     -13.181
  H      111.013     -58.524     -14.772
  H      112.335     -59.150     -13.744
  H      109.746     -60.777     -24.686
  H      110.035     -59.458     -23.578
  H      108.416     -59.778     -24.152

 3  4  5  6  7  8  9  10  11  12  23  26  30  31 0
 6-311+G(2d,p)
 ****
 33  35  36  37  38 0
 6-311+G(2d,p)
 ****
 1  2  13  14  15  16  17  18  19  20  21  22  24  25 0
 3-21G
 ****
 27  28  29  32  34  39  40  41  42  43  44  45  46  47  48  49 0
 3-21G
 ****


