%nproc=1
%NoSave
%Mem=1900MB
#P OB98/GEN NMR

erre ene a

0 1
  C       59.953    -170.112    -530.024
  O       59.726    -168.737    -529.775
  P       58.582    -168.004    -530.635
  C       57.513    -166.557    -528.759
  O       57.388    -167.681    -529.620
  C       57.212    -166.963    -527.313
  O       58.250    -167.822    -526.805
  C       57.136    -165.792    -526.343
  O       55.882    -165.138    -526.380
  C       57.327    -166.512    -525.013
  O       56.084    -167.105    -524.598
  C       58.346    -167.598    -525.376
  N       62.509    -168.958    -522.828
  C       61.367    -169.686    -523.120
  N       61.306    -170.939    -522.599
  N       60.385    -169.237    -523.846
  C       60.575    -167.969    -524.285
  C       61.664    -167.148    -524.063
  C       62.742    -167.655    -523.248
  O       63.747    -167.042    -522.913
  N       61.503    -165.933    -524.678
  C       60.328    -166.016    -525.276
  N       59.705    -167.216    -525.024
  O       57.986    -169.183    -531.541
  O       59.063    -166.853    -531.457
  H       56.210    -167.419    -523.680
  H       57.484    -168.810    -532.289
  H       63.239    -169.350    -522.258
  H       59.878    -165.231    -525.875
  H       58.128    -168.548    -524.879
  H       57.639    -165.838    -524.210
  H       62.008    -171.316    -521.983
  H       57.968    -165.093    -526.497
  H       60.457    -171.469    -522.747
  H       56.268    -167.527    -527.310
  H       56.807    -165.780    -529.073
  H       58.527    -166.158    -528.836
  P       55.825    -163.728    -527.146
  C       53.968    -164.257    -528.884
  O       55.353    -164.070    -528.638
  O       57.372    -163.346    -527.318
  O       55.055    -162.665    -526.433
  H       57.480    -162.371    -527.380
  H       53.796    -164.215    -529.965
  H       53.374    -163.474    -528.406
  H       53.649    -165.238    -528.514
  H       60.735    -170.466    -529.385
  H       60.239    -170.247    -531.046
  H       59.057    -170.663    -529.828

 3  4  5  6  7  8  9  10  11  12  23  26  30  31 0
 6-311+G(2d,p)
 ****
 33  35  36  37  38 0
 6-311+G(2d,p)
 ****
 1  2  13  14  15  16  17  18  19  20  21  22  24  25 0
 3-21G
 ****
 27  28  29  32  34  39  40  41  42  43  44  45  46  47  48  49 0
 3-21G
 ****


