%nproc=1
%NoSave
%Mem=1900MB
#P OB98/GEN NMR

erre ene a

0 1
  C      -39.305     202.973      -4.835
  O      -39.741     204.031      -4.010
  H      -38.490     203.333      -5.468
  H      -40.122     202.637      -5.477
  H      -38.939     202.138      -4.231
  P      -40.829     203.688      -2.883
  C      -42.530     205.642      -2.712
  O      -41.303     205.092      -2.259
  C      -42.641     207.109      -2.294
  O      -42.906     207.170      -0.869
  C      -41.378     207.926      -2.574
  O      -41.764     209.234      -3.005
  C      -40.702     208.019      -1.218
  O      -39.851     209.159      -1.104
  C      -41.908     208.021      -0.270
  N      -41.539     207.565       1.066
  C      -41.251     208.556       2.009
  O      -41.307     209.746       1.695
  N      -40.853     208.179       3.266
  C      -40.673     206.923       3.533
  N      -40.247     206.614       4.788
  C      -40.898     205.847       2.548
  C      -41.334     206.235       1.351
  O      -39.957     203.043      -1.709
  O      -41.944     202.798      -3.319
  H      -40.339     209.942      -1.438
  H      -40.466     202.373      -1.216
  H      -40.709     204.816       2.811
  H      -41.520     205.517       0.561
  H      -42.336     209.029      -0.193
  H      -40.089     207.124      -1.052
  H      -40.729     207.471      -3.328
  H      -43.510     207.549      -2.799
  H      -40.087     207.382       5.429
  H      -43.358     205.083      -2.265
  H      -40.032     205.677       5.091
  H      -42.590     205.550      -3.802
  P      -40.785     209.970      -4.038
  C      -40.735     212.567      -4.087
  O      -41.440     211.381      -4.430
  O      -40.932     209.099      -5.372
  O      -39.366     210.037      -3.576
  H      -40.120     208.583      -5.526
  H      -41.293     213.420      -4.411
  H      -39.778     212.564      -4.566
  H      -40.603     212.609      -3.026

 6  7  8  9  10  11  12  13  14  15  16  26  30  31  32  33  35 0
 6-311+G(2d,p)
 ****
 37  38 0
 6-311+G(2d,p)
 ****
 1  2  3  4  5  17  18  19  20  21  22  23  24  25 0
 3-21G
 ****
 27  28  29  34  36  39  40  41  42  43  44  45  46 0
 3-21G
 ****


