%nproc=1
%NoSave
%Mem=1900MB
#P OB98/GEN NMR

erre ene a

0 1
  C      571.013    -448.799       0.060
  O      570.158    -449.212      -0.989
  H      572.038    -449.082      -0.197
  H      570.738    -449.293       0.995
  H      570.976    -447.712       0.181
  P      568.584    -448.911      -0.854
  C      567.844    -449.887      -3.137
  O      567.892    -450.070      -1.727
  C      567.595    -451.227      -3.827
  O      568.800    -452.014      -3.905
  C      566.586    -452.136      -3.134
  O      565.234    -451.711      -3.270
  C      566.857    -453.442      -3.857
  O      566.272    -453.398      -5.173
  C      568.404    -453.417      -3.929
  N      569.034    -454.153      -2.838
  C      569.177    -455.536      -3.008
  O      568.766    -456.085      -4.029
  N      569.735    -456.272      -1.992
  C      570.102    -455.686      -0.889
  N      570.648    -456.474       0.091
  C      569.954    -454.234      -0.663
  C      569.424    -453.538      -1.662
  O      568.153    -447.515      -1.172
  O      568.217    -449.369       0.638
  H      565.329    -453.188      -5.052
  H      567.254    -449.194       0.776
  H      570.251    -453.803       0.282
  H      569.277    -452.466      -1.570
  H      568.756    -453.833      -4.889
  H      566.451    -454.311      -3.345
  H      566.846    -452.264      -2.072
  H      567.290    -451.007      -4.864
  H      570.738    -457.460      -0.102
  H      568.792    -449.452      -3.459
  H      570.889    -456.115       1.002
  H      567.027    -449.207      -3.397
  P      564.219    -452.107      -2.087
  C      562.493    -450.139      -1.956
  O      562.811    -451.441      -2.461
  O      564.750    -451.244      -0.848
  O      564.151    -453.574      -1.787
  H      565.309    -451.797      -0.261
  H      561.522    -449.850      -2.301
  H      563.219    -449.434      -2.304
  H      562.500    -450.160      -0.886

 6  7  8  9  10  11  12  13  14  15  16  26  30  31  32  33  35 0
 6-311+G(2d,p)
 ****
 37  38 0
 6-311+G(2d,p)
 ****
 1  2  3  4  5  17  18  19  20  21  22  23  24  25 0
 3-21G
 ****
 27  28  29  34  36  39  40  41  42  43  44  45  46 0
 3-21G
 ****


