%nproc=1
%NoSave
%Mem=1900MB
#P OB98/GEN NMR

erre ene a

0 1
  C      202.972     -53.619    -620.166
  O      201.775     -54.314    -620.502
  P      201.936     -55.508    -621.569
  C      201.523     -55.801    -624.111
  O      201.686     -54.896    -623.033
  C      200.706     -55.168    -625.241
  O      199.298     -55.055    -624.864
  C      201.175     -53.750    -625.630
  O      200.977     -53.612    -627.041
  C      200.197     -52.870    -624.867
  O      200.176     -51.521    -625.323
  C      198.915     -53.675    -625.063
  N      195.061     -50.412    -624.314
  C      195.964     -50.533    -625.314
  N      196.966     -51.423    -625.430
  C      196.979     -52.264    -624.386
  C      196.131     -52.267    -623.286
  C      195.128     -51.283    -623.269
  N      194.218     -51.135    -622.249
  N      196.476     -53.274    -622.402
  C      197.565     -53.827    -622.926
  N      197.851     -53.298    -624.156
  O      200.649     -56.425    -621.305
  O      203.213     -56.270    -621.423
  H      199.657     -50.973    -624.699
  H      200.879     -57.194    -620.747
  H      195.880     -49.803    -626.114
  H      198.168     -54.582    -622.461
  H      198.520     -53.581    -626.081
  H      200.486     -52.849    -623.810
  H      202.233     -53.554    -625.393
  H      200.756     -55.827    -626.121
  H      201.016     -56.714    -623.770
  H      193.539     -50.399    -622.325
  H      194.236     -51.756    -621.459
  H      202.517     -56.111    -624.472
  P      202.256     -53.364    -627.980
  C      203.657     -51.283    -628.548
  O      202.476     -51.767    -627.934
  O      201.604     -53.543    -629.429
  O      203.445     -54.229    -627.728
  H      200.789     -53.027    -629.518
  H      203.643     -50.193    -628.528
  H      203.704     -51.611    -629.595
  H      204.531     -51.635    -627.992
  H      202.751     -52.851    -619.454
  H      203.388     -53.178    -621.048
  H      203.676     -54.305    -619.744

 3  4  5  6  7  8  9  10  11  12  22  25  29  30  31  32 0
 6-311+G(2d,p)
 ****
 33  36  37 0
 6-311+G(2d,p)
 ****
 1  2  13  14  15  16  17  18  19  20  21  23  24  26 0
 3-21G
 ****
 27  28  34  35  38  39  40  41  42  43  44  45  46  47  48 0
 3-21G
 ****


