%nproc=1
%NoSave
%Mem=1900MB
#P OB98/GEN NMR

erre ene a

0 1
  C      245.507     -96.840     -93.250
  O      246.082     -96.462     -92.011
  P      246.973     -97.481     -91.156
  C      246.496     -99.526     -89.666
  O      245.933     -98.498     -90.466
  C      245.565    -100.739     -89.574
  O      245.150    -101.130     -90.916
  C      246.178    -101.970     -88.900
  O      245.110    -102.629     -88.205
  C      246.633    -102.805     -90.089
  O      246.838    -104.172     -89.760
  C      245.495    -102.525     -91.090
  N      245.885    -102.832     -92.457
  C      245.322    -103.977     -93.029
  O      244.600    -104.719     -92.349
  N      245.629    -104.298     -94.328
  C      246.508    -103.583     -94.970
  N      246.774    -103.937     -96.255
  C      247.220    -102.439     -94.363
  C      246.853    -102.114     -93.123
  O      247.946     -96.845     -90.220
  O      247.668     -98.404     -92.264
  H      247.721    -104.259     -89.336
  H      248.422     -97.923     -92.691
  H      247.985    -101.908     -94.913
  H      247.317    -101.290     -92.596
  H      244.603    -103.119     -90.830
  H      247.581    -102.409     -90.476
  H      246.999    -101.733     -88.217
  H      244.658    -100.428     -89.034
  H      246.249    -104.716     -96.636
  H      246.644     -99.128     -88.658
  H      247.379    -103.402     -96.863
  H      247.471     -99.817     -90.060
  P      245.393    -103.579     -86.946
  C      246.862    -105.620     -86.447
  O      246.541    -104.607     -87.385
  O      244.179    -104.215     -86.346
  O      246.140    -102.627     -85.891
  H      246.122    -103.048     -85.006
  H      247.429    -106.409     -86.954
  H      245.950    -106.059     -86.022
  H      247.471    -105.193     -85.645
  H      244.955     -96.017     -93.653
  H      244.850     -97.671     -93.100
  H      246.282     -97.118     -93.933

 3  4  5  6  7  8  9  10  11  12  13  23  27  28  29  30  32 0
 6-311+G(2d,p)
 ****
 34  35 0
 6-311+G(2d,p)
 ****
 1  2  14  15  16  17  18  19  20  21  22  24  25  26 0
 3-21G
 ****
 31  33  36  37  38  39  40  41  42  43  44  45  46 0
 3-21G
 ****


