%nproc=1
%NoSave
%Mem=1900MB
#P OB98/GEN NMR

erre ene a

0 1
  C     -484.398    -127.602    -401.789
  O     -483.067    -128.033    -401.590
  H     -484.399    -126.772    -402.500
  H     -484.830    -127.262    -400.843
  H     -485.003    -128.417    -402.200
  P     -482.850    -129.272    -400.591
  C     -483.013    -131.229    -402.296
  O     -483.636    -130.511    -401.234
  C     -482.914    -132.708    -401.932
  O     -484.226    -133.214    -401.590
  C     -482.418    -133.590    -403.069
  O     -481.014    -133.523    -403.234
  C     -482.907    -134.955    -402.610
  O     -482.004    -135.552    -401.673
  C     -484.240    -134.621    -401.927
  N     -487.030    -138.389    -403.946
  C     -486.008    -138.396    -403.064
  N     -485.326    -137.346    -402.565
  C     -485.817    -136.189    -403.045
  C     -486.855    -136.025    -403.946
  C     -487.482    -137.195    -404.406
  N     -488.505    -137.189    -405.322
  N     -487.042    -134.689    -404.237
  C     -486.135    -134.055    -403.513
  N     -485.376    -134.919    -402.776
  O     -483.741    -128.870    -399.326
  O     -481.435    -129.539    -400.213
  H     -481.813    -134.867    -401.003
  H     -483.167    -128.507    -398.625
  H     -485.693    -139.378    -402.721
  H     -485.990    -132.980    -403.495
  H     -484.379    -135.180    -400.991
  H     -483.007    -135.636    -403.459
  H     -482.927    -133.325    -404.002
  H     -482.273    -132.807    -401.046
  H     -482.006    -130.828    -402.465
  H     -483.606    -131.092    -403.209
  H     -488.862    -138.068    -405.659
  H     -488.770    -136.315    -405.759
  P     -480.442    -133.407    -404.724
  C     -480.411    -130.799    -404.791
  O     -480.943    -132.006    -405.322
  O     -481.286    -134.495    -405.546
  O     -478.975    -133.641    -404.849
  H     -480.722    -134.906    -406.226
  H     -480.848    -129.964    -405.297
  H     -479.350    -130.785    -404.930
  H     -480.635    -130.740    -403.746

 6  7  8  9  10  11  12  13  14  15  25  28  32  33  34  35 0
 6-311+G(2d,p)
 ****
 36  37  40 0
 6-311+G(2d,p)
 ****
 1  2  3  4  5  16  17  18  19  20  21  22  23  24 0
 3-21G
 ****
 26  27  29  30  31  38  39 41  42  43  44  45  46  47  48 0
 3-21G
 ****


