%nproc=1
%NoSave
%Mem=1900MB
#P OB98/GEN NMR

erre ene a

0 1
  C      131.562     275.378    -166.676
  O      132.840     274.884    -166.316
  H      131.585     275.685    -167.725
  H      131.315     276.247    -166.060
  H      130.802     274.602    -166.548
  P      132.952     274.169    -164.887
  C      132.307     271.811    -165.840
  O      132.010     272.864    -164.931
  C      132.412     270.485    -165.088
  O      131.132     270.093    -164.553
  C      132.815     269.304    -165.957
  O      134.175     269.345    -166.333
  C      132.472     268.144    -165.033
  O      133.533     267.871    -164.108
  C      131.220     268.674    -164.290
  N      130.018     267.959    -164.685
  C      129.854     266.694    -164.100
  O      130.688     266.270    -163.302
  N      128.775     265.938    -164.471
  C      127.946     266.384    -165.364
  N      126.914     265.570    -165.710
  C      128.083     267.713    -166.004
  C      129.133     268.439    -165.620
  O      132.143     275.171    -163.937
  O      134.345     273.887    -164.434
  H      133.593     268.651    -163.519
  H      131.274     275.425    -164.286
  H      127.357     268.046    -166.731
  H      129.313     269.424    -166.039
  H      131.344     268.564    -163.202
  H      132.294     267.221    -165.592
  H      132.161     269.244    -166.839
  H      133.113     270.621    -164.252
  H      126.887     264.645    -165.289
  H      133.234     272.017    -166.378
  H      126.255     265.779    -166.446
  H      131.497     271.769    -166.574
  P      134.731     268.453    -167.542
  C      134.109     270.452    -169.046
  O      134.070     269.039    -168.888
  O      134.579     266.980    -167.373
  O      136.253     268.940    -167.680
  H      136.362     269.889    -167.872
  H      133.643     270.720    -169.971
  H      135.127     270.782    -169.050
  H      133.587     270.916    -168.236

 6  7  8  9  10  11  12  13  14  15  16  26  30  31  32  33  35 0
 6-311+G(2d,p)
 ****
 37  38 0
 6-311+G(2d,p)
 ****
 1  2  3  4  5  17  18  19  20  21  22  23  24  25 0
 3-21G
 ****
 27  28  29  34  36  39  40  41  42  43  44  45  46 0
 3-21G
 ****


