%nproc=1
%NoSave
%Mem=1900MB
#P OB98/GEN NMR

erre ene a

0 1
  C     -259.237    -310.907     572.513
  O     -260.139    -309.846     572.266
  H     -259.812    -311.798     572.785
  H     -258.567    -310.657     573.337
  H     -258.659    -311.133     571.610
  P     -259.549    -308.400     571.905
  C     -261.443    -307.689     570.299
  O     -260.804    -307.461     571.552
  C     -262.548    -306.652     570.074
  O     -263.611    -306.919     571.026
  C     -262.053    -305.208     570.289
  O     -262.345    -304.349     569.195
  C     -262.641    -304.847     571.658
  O     -262.845    -303.464     571.859
  C     -263.914    -305.704     571.730
  N     -264.356    -305.992     573.094
  C     -265.605    -305.517     573.480
  O     -266.371    -304.882     572.759
  N     -265.979    -305.802     574.767
  C     -265.235    -306.485     575.686
  O     -265.619    -306.718     576.827
  C     -263.904    -306.944     575.224
  C     -263.537    -306.679     573.976
  O     -258.456    -308.386     570.891
  O     -259.054    -307.816     573.314
  H     -263.417    -303.147     571.125
  H     -258.077    -307.858     573.359
  H     -266.884    -305.479     575.053
  H     -263.287    -307.477     575.939
  H     -262.566    -306.992     573.608
  H     -264.741    -305.206     571.212
  H     -261.944    -305.188     572.433
  H     -260.960    -305.175     570.356
  H     -262.961    -306.788     569.068
  H     -261.862    -308.696     570.315
  H     -260.706    -307.623     569.489
  P     -261.277    -303.437     568.442
  C     -262.140    -303.607     565.962
  O     -261.958    -302.812     567.136
  O     -259.912    -304.014     568.279
  O     -261.133    -302.143     569.407
  H     -260.210    -301.829     569.316
  H     -262.608    -303.018     565.201
  H     -262.760    -304.448     566.193
  H     -261.189    -303.950     565.613

 6  7  8  9  10  11  12  13  14  15  16  26  31  32  33  34  35 0
 6-311+G(2d,p)
 ****
 36  37 0
 6-311+G(2d,p)
 ****
 1  2  3  4  5  17  18  19  20  21  22  23  24  25 0
 3-21G
 ****
 27  28  29  30  38  39  40  41  42  43  44  45 0
 3-21G
 ****


