%nproc=1
%NoSave
%Mem=1900MB
#P OB98/GEN NMR

erre ene a

0 1
  C      -21.939     156.500     212.711
  O      -22.100     155.922     213.991
  H      -21.681     155.708     212.001
  H      -21.128     157.235     212.725
  H      -22.869     156.974     212.384
  P      -22.418     156.880     215.236
  C      -20.694     155.633     216.698
  O      -22.046     156.052     216.562
  C      -20.636     154.235     217.334
  O      -20.622     153.263     216.251
  C      -19.372     154.028     218.187
  O      -19.662     153.568     219.509
  C      -18.497     153.142     217.310
  O      -17.572     152.341     218.018
  C      -19.517     152.359     216.475
  N      -18.989     151.867     215.202
  C      -18.185     150.729     215.236
  O      -17.903     150.101     216.256
  N      -17.699     150.319     214.024
  C      -17.927     150.908     212.819
  O      -17.471     150.489     211.761
  C      -18.767     152.119     212.851
  C      -19.253     152.537     214.020
  O      -23.775     157.501     215.245
  O      -21.265     157.985     215.173
  H      -16.980     151.924     217.360
  H      -21.625     158.816     214.797
  H      -17.128     149.490     214.039
  H      -18.964     152.621     211.908
  H      -19.874     153.427     214.076
  H      -19.892     151.499     217.035
  H      -17.915     153.787     216.640
  H      -18.856     154.976     218.357
  H      -21.551     154.070     217.915
  H      -20.176     156.356     217.337
  H      -20.212     155.614     215.714
  P      -18.807     153.937     220.804
  C      -18.589     151.411     221.487
  O      -18.945     152.733     221.854
  O      -18.986     155.320     221.331
  O      -17.281     153.806     220.291
  H      -16.758     154.475     220.781
  H      -18.750     150.755     222.317
  H      -17.557     151.384     221.207
  H      -19.191     151.096     220.661

 6  7  8  9  10  11  12  13  14  15  16  26  31  32  33  34  35 0
 6-311+G(2d,p)
 ****
 36  37 0
 6-311+G(2d,p)
 ****
 1  2  3  4  5  17  18  19  20  21  22  23  24  25 0
 3-21G
 ****
 27  28  29  30  38  39  40  41  42  43  44  45 0
 3-21G
 ****


