%nproc=1
%NoSave
%Mem=1900MB
#P OB98/GEN NMR

erre ene a

0 1
  C       47.383     -94.395     264.396
  O       48.125     -95.394     265.066
  H       46.461     -94.211     264.956
  H       47.124     -94.734     263.389
  H       47.956     -93.468     264.341
  P       49.607     -95.689     264.510
  C       49.395     -97.613     262.735
  O       49.403     -96.222     263.010
  C       50.627     -98.007     261.915
  O       50.591     -97.294     260.650
  C       51.956     -97.676     262.599
  O       52.891     -98.716     262.301
  C       52.388     -96.380     261.933
  O       53.800     -96.184     262.017
  C       51.826     -96.558     260.514
  N       51.615     -95.281     259.833
  C       52.073     -95.189     258.512
  O       52.645     -96.144     257.985
  N       51.918     -94.004     257.837
  C       51.410     -92.974     258.454
  N       51.302     -91.822     257.733
  C       50.959     -93.012     259.858
  C       51.081     -94.186     260.478
  O       50.008     -97.002     265.333
  O       50.555     -94.547     264.663
  H       54.230     -96.831     261.410
  H       49.284     -97.648     265.415
  H       50.557     -92.123     260.330
  H       50.766     -94.304     261.513
  H       52.507     -97.166     259.904
  H       51.902     -95.528     262.426
  H       51.871     -97.562     263.680
  H       50.557     -99.075     261.675
  H       51.638     -91.832     256.778
  H       48.487     -97.885     262.184
  H       50.972     -90.950     258.124
  H       49.390     -98.148     263.690
  P       53.723     -99.388     263.493
  C       55.902     -98.059     263.087
  O       54.846     -98.352     263.994
  O       54.219    -100.776     263.237
  O       52.677     -99.372     264.713
  H       52.790    -100.209     265.214
  H       56.577     -97.362     263.538
  H       55.496     -97.634     262.193
  H       56.427     -98.960     262.848

 6  7  8  9  10  11  12  13  14  15  16  26  30  31  32  33  35 0
 6-311+G(2d,p)
 ****
 37  38 0
 6-311+G(2d,p)
 ****
 1  2  3  4  5  17  18  19  20  21  22  23  24  25 0
 3-21G
 ****
 27  28  29  34  36  39  40  41  42  43  44  45  46 0
 3-21G
 ****


