%nproc=1
%NoSave
%Mem=1900MB
#P OB98/GEN NMR

erre ene a

0 1
  C     -120.684     -29.932     183.421
  O     -121.728     -29.366     182.626
  P     -121.288     -28.228     181.582
  C     -122.443     -26.854     179.707
  O     -122.607     -27.710     180.829
  C     -123.730     -26.077     179.428
  O     -124.713     -26.871     178.739
  C     -124.414     -25.568     180.691
  O     -123.769     -24.396     181.156
  C     -125.832     -25.317     180.195
  O     -125.946     -24.024     179.566
  C     -126.031     -26.436     179.159
  N     -129.958     -29.486     178.175
  C     -129.558     -28.325     177.541
  N     -130.294     -27.936     176.479
  N     -128.527     -27.613     177.915
  C     -127.883     -28.123     178.990
  C     -128.166     -29.276     179.684
  C     -129.311     -30.055     179.263
  O     -129.692     -31.100     179.776
  N     -127.250     -29.500     180.680
  C     -126.492     -28.418     180.666
  N     -126.794     -27.582     179.619
  O     -120.496     -29.048     180.458
  O     -120.436     -27.164     182.187
  H     -125.164     -23.874     179.005
  H     -119.545     -28.837     180.503
  H     -130.766     -29.991     177.851
  H     -125.702     -28.206     181.369
  H     -126.547     -26.067     178.264
  H     -126.556     -25.326     181.013
  H     -131.099     -28.437     176.136
  H     -124.418     -26.352     181.459
  H     -130.014     -27.091     175.996
  H     -123.467     -25.228     178.783
  H     -122.167     -27.439     178.828
  H     -121.609     -26.172     179.906
  P     -122.741     -24.539     182.376
  C     -121.173     -22.916     183.656
  O     -122.285     -23.065     182.795
  O     -121.440     -25.165     181.683
  O     -123.224     -25.404     183.494
  H     -121.084     -25.880     182.243
  H     -120.681     -21.965     183.436
  H     -120.450     -23.728     183.529
  H     -121.521     -22.903     184.693
  H     -121.095     -30.673     184.074
  H     -120.221     -29.162     184.002
  H     -119.954     -30.384     182.782

 3  4  5  6  7  8  9  10  11  12  23  26  30  31 0
 6-311+G(2d,p)
 ****
 33  35  36  37  38 0
 6-311+G(2d,p)
 ****
 1  2  13  14  15  16  17  18  19  20  21  22  24  25 0
 3-21G
 ****
 27  28  29  32  34  39  40  41  42  43  44  45  46  47  48  49 0
 3-21G
 ****


