%nproc=1
%NoSave
%Mem=1900MB
#P OB98/GEN NMR

erre ene a

0 1
  C     -290.215    -208.978    -547.705
  O     -290.296    -210.381    -547.557
  H     -290.597    -208.709    -548.695
  H     -289.179    -208.640    -547.624
  H     -290.829    -208.482    -546.947
  P     -289.689    -211.045    -546.231
  C     -287.547    -211.786    -547.475
  O     -288.094    -211.037    -546.401
  C     -286.033    -211.979    -547.289
  O     -285.376    -210.687    -547.433
  C     -285.643    -212.538    -545.907
  O     -284.443    -213.296    -546.081
  C     -285.366    -211.262    -545.138
  O     -284.677    -211.522    -543.939
  C     -284.642    -210.442    -546.210
  N     -284.583    -209.024    -545.886
  C     -284.071    -208.702    -544.629
  O     -283.717    -209.587    -543.853
  N     -284.007    -207.380    -544.267
  C     -284.475    -206.469    -545.060
  N     -284.399    -205.183    -544.635
  C     -285.080    -206.773    -546.377
  C     -285.093    -208.062    -546.726
  O     -290.270    -212.362    -545.841
  O     -289.938    -209.943    -545.099
  H     -284.555    -210.698    -543.416
  H     -290.677    -210.215    -544.527
  H     -285.471    -205.979    -546.994
  H     -285.518    -208.385    -547.671
  H     -283.622    -210.810    -546.360
  H     -286.305    -210.773    -544.855
  H     -286.427    -213.159    -545.461
  H     -285.660    -212.621    -548.093
  H     -283.987    -205.018    -543.720
  H     -287.739    -211.231    -548.397
  H     -284.742    -204.390    -545.158
  H     -288.034    -212.762    -547.540
  P     -284.369    -214.882    -545.839
  C     -282.625    -215.497    -544.036
  O     -283.989    -215.170    -544.309
  O     -283.515    -215.611    -546.822
  O     -285.887    -215.382    -545.942
  H     -285.902    -216.297    -546.292
  H     -282.502    -215.665    -542.987
  H     -281.996    -214.688    -544.344
  H     -282.356    -216.382    -544.573

 6  7  8  9  10  11  12  13  14  15  16  26  30  31  32  33  35 0
 6-311+G(2d,p)
 ****
 37  38 0
 6-311+G(2d,p)
 ****
 1  2  3  4  5  17  18  19  20  21  22  23  24  25 0
 3-21G
 ****
 27  28  29  34  36  39  40  41  42  43  44  45  46 0
 3-21G
 ****


