%nproc=1
%NoSave
%Mem=1900MB
#P OB98/GEN NMR

erre ene a

0 1
  C      553.507    -892.200     -21.786
  O      554.856    -892.630     -21.559
  P      555.921    -892.410     -22.726
  C      554.732    -894.260     -24.149
  O      555.218    -892.940     -24.068
  C      554.679    -894.730     -25.603
  O      555.983    -894.560     -26.224
  C      554.318    -896.190     -25.776
  O      552.934    -896.420     -25.557
  C      554.784    -896.440     -27.191
  O      553.823    -895.960     -28.132
  C      556.058    -895.560     -27.284
  N      557.298    -896.330     -27.194
  C      557.731    -896.890     -28.397
  O      557.133    -896.790     -29.459
  N      558.889    -897.610     -28.305
  C      559.653    -897.830     -27.191
  O      560.678    -898.460     -27.196
  C      559.093    -897.240     -25.966
  C      557.986    -896.530     -26.010
  O      557.002    -893.530     -22.376
  O      556.447    -891.010     -22.758
  H      556.605    -894.350     -22.016
  H      553.079    -896.620     -28.150
  H      559.240    -898.030     -29.181
  H      559.643    -897.440     -25.041
  H      557.546    -896.100     -25.116
  H      556.064    -894.970     -28.226
  H      554.947    -897.480     -27.419
  H      554.895    -896.800     -25.094
  H      553.932    -894.090     -26.129
  H      553.714    -894.290     -23.726
  H      555.365    -894.910     -23.545
  P      552.524    -896.980     -24.105
  C      553.619    -899.310     -24.531
  O      553.564    -898.150     -23.726
  O      551.152    -897.760     -24.450
  O      552.372    -895.920     -23.058
  H      551.237    -898.300     -25.251
  H      554.604    -899.790     -24.371
  H      553.530    -899.080     -25.583
  H      552.819    -900.000     -24.225
  H      552.915    -892.412     -20.921
  H      553.104    -892.720     -22.630
  H      553.496    -891.147     -21.977

 3  4  5  6  7  8  9  10  11  12  13  24  28  29  30  31  32 0
 6-311+G(2d,p)
 ****
 33  34 0
 6-311+G(2d,p)
 ****
 1  2  14  15  16  17  18  19  20  21  22  23  25  26  27 0
 3-21G
 ****
 35  36  37  38  39  40  41  42  43  44  45 0
 3-21G
 ****


