%nproc=1
%NoSave
%Mem=1900MB
#P OB98/GEN NMR

erre ene a

0 1
  C      288.068     -64.075    -183.401
  O      286.914     -64.485    -182.705
  P      286.491     -66.010    -182.511
  C      284.050     -65.842    -183.430
  O      284.902     -66.077    -182.316
  C      282.591     -65.670    -182.980
  O      282.130     -66.926    -182.420
  C      282.465     -64.612    -181.872
  O      281.341     -63.752    -182.016
  C      282.547     -65.443    -180.597
  O      282.016     -64.788    -179.457
  C      281.841     -66.729    -181.022
  N      280.389     -70.398    -177.823
  C      279.612     -69.506    -178.532
  N      278.301     -69.472    -178.205
  N      280.088     -68.700    -179.444
  C      281.430     -68.767    -179.579
  C      282.305     -69.611    -178.934
  C      281.763     -70.519    -177.952
  O      282.430     -71.247    -177.217
  N      283.608     -69.353    -179.272
  C      283.527     -68.328    -180.097
  N      282.228     -67.916    -180.288
  O      287.346     -66.833    -181.604
  O      286.669     -66.589    -184.008
  H      282.171     -65.367    -178.688
  H      286.967     -67.518    -183.923
  H      279.976     -70.938    -177.070
  H      284.371     -67.827    -180.558
  H      280.759     -66.645    -180.910
  H      283.608     -65.627    -180.395
  H      277.935     -69.973    -177.409
  H      283.315     -63.922    -181.901
  H      277.767     -68.669    -178.525
  H      281.970     -65.443    -183.851
  H      284.141     -66.720    -184.079
  H      284.386     -64.969    -183.995
  P      281.312     -62.167    -182.202
  C      279.895     -61.999    -180.073
  O      280.047     -61.582    -181.416
  O      280.912     -61.939    -183.735
  O      282.601     -61.479    -181.899
  H      281.425     -61.193    -184.099
  H      278.877     -61.765    -179.745
  H      280.603     -61.460    -179.440
  H      280.059     -63.077    -179.979
  H      288.130     -63.007    -183.392
  H      288.016     -64.420    -184.412
  H      288.935     -64.486    -182.928

 3  4  5  6  7  8  9  10  11  12  23  26  30  31 0
 6-311+G(2d,p)
 ****
 33  35  36  37  38 0
 6-311+G(2d,p)
 ****
 1  2  13  14  15  16  17  18  19  20  21  22  24  25 0
 3-21G
 ****
 27  28  29  32  34  39  40  41  42  43  44  45  46  47  48  49 0
 3-21G
 ****


