%nproc=1
%NoSave
%Mem=1900MB
#P OB98/GEN NMR

erre ene a

0 1
  C     -114.838    1014.298      76.358
  O     -115.136    1013.439      77.456
  P     -115.491    1011.910      77.105
  C     -113.097    1010.902      77.182
  O     -114.213    1011.256      76.391
  C     -112.893    1009.383      77.145
  O     -112.484    1008.935      75.837
  C     -111.808    1008.904      78.101
  O     -112.254    1008.918      79.445
  C     -111.531    1007.512      77.542
  O     -112.527    1006.587      77.972
  C     -111.668    1007.738      76.024
  N     -107.223    1005.516      74.795
  C     -108.299    1005.069      75.476
  N     -109.437    1005.731      75.768
  C     -109.414    1006.963      75.252
  C     -108.384    1007.564      74.526
  C     -107.243    1006.782      74.320
  N     -106.139    1007.242      73.627
  N     -108.726    1008.853      74.188
  C     -109.925    1009.047      74.706
  N     -110.395    1007.932      75.355
  O     -116.575    1012.035      75.949
  O     -116.011    1011.145      78.284
  H     -113.399    1006.926      77.706
  H     -117.457    1011.778      76.284
  H     -108.238    1004.042      75.855
  H     -110.481    1009.957      74.631
  H     -112.175    1006.919      75.520
  H     -110.554    1007.115      77.855
  H     -110.905    1009.531      78.011
  H     -113.851    1008.898      77.394
  H     -113.237    1011.235      78.209
  H     -105.316    1006.641      73.578
  H     -106.111    1008.213      73.339
  H     -112.208    1011.419      76.806
  P     -111.153    1008.826      80.597
  C     -111.447    1011.276      81.334
  O     -110.589    1010.339      80.713
  O     -109.959    1008.060      79.867
  O     -111.617    1008.207      81.880
  H     -109.796    1008.428      78.970
  H     -110.932    1012.242      81.380
  H     -111.702    1010.959      82.356
  H     -112.371    1011.380      80.761
  H     -114.621    1015.280      76.722
  H     -115.680    1014.340      75.699
  H     -113.990    1013.918      75.828

 3  4  5  6  7  8  9  10  11  12  22  25  29  30  31  32 0
 6-311+G(2d,p)
 ****
 33  36  37 0
 6-311+G(2d,p)
 ****
 1  2  13  14  15  16  17  18  19  20  21  23  24  26 0
 3-21G
 ****
 27  28  34  35  38  39  40  41  42  43  44  45  46  47  48 0
 3-21G
 ****


