%nproc=1
%NoSave
%Mem=1900MB
#P OB98/GEN NMR

erre ene a

0 1
  C     -428.020      -8.832     184.848
  O     -427.664      -7.458     184.946
  P     -426.755      -6.838     183.783
  C     -427.727      -4.499     184.328
  O     -426.552      -5.285     184.140
  C     -427.365      -3.033     184.544
  O     -426.752      -2.889     185.857
  C     -426.386      -2.458     183.515
  O     -426.824      -1.151     183.118
  C     -425.095      -2.292     184.303
  O     -424.258      -1.284     183.746
  C     -425.655      -1.970     185.687
  N     -423.592       0.427     189.629
  C     -424.720       0.746     188.891
  N     -425.345       1.896     189.217
  N     -425.179       0.006     187.917
  C     -424.471      -1.131     187.724
  C     -423.350      -1.562     188.395
  C     -422.814      -0.704     189.429
  O     -421.770      -0.887     190.052
  N     -422.922      -2.782     187.920
  C     -423.780      -3.085     186.965
  N     -424.709      -2.092     186.775
  O     -427.748      -6.815     182.528
  O     -425.510      -7.600     183.469
  H     -423.480      -1.201     184.324
  H     -427.354      -7.308     181.777
  H     -423.270       1.042     190.354
  H     -423.753      -3.987     186.368
  H     -426.056      -0.947     185.706
  H     -424.549      -3.243     184.296
  H     -425.062       2.499     189.977
  H     -426.252      -3.086     182.623
  H     -426.184       2.139     188.704
  H     -428.294      -2.447     184.566
  H     -428.271      -4.875     185.204
  H     -428.364      -4.604     183.441
  P     -426.787      -0.838     181.539
  C     -428.449       1.139     181.883
  O     -427.196       0.701     181.387
  O     -428.065      -1.631     180.978
  O     -425.516      -1.258     180.869
  H     -427.943      -1.846     180.037
  H     -428.953       0.363     182.477
  H     -429.089       1.402     181.040
  H     -428.296       2.023     182.506
  H     -428.624      -9.105     185.688
  H     -427.133      -9.430     184.837
  H     -428.571      -8.994     183.945

 3  4  5  6  7  8  9  10  11  12  23  26  30  31  33  0
 6-311+G(2d,p)
 ****
 35  36  37  38 0
 6-311+G(2d,p)
 ****
 1  2  13  14  15  16  17  18  19  20  21  22  24  25  27  28  29 0
 3-21G
 ****
 32  34  39  40  41  42  43  44  45  46  47  48  49 0
 3-21G
 ****


