%nproc=1
%NoSave
%Mem=1900MB
#P OB98/GEN NMR

erre ene a

0 1
  C      -35.615    -241.071     514.842
  O      -36.464    -242.113     515.278
  H      -36.160    -240.450     514.126
  H      -34.737    -241.491     514.343
  H      -35.303    -240.450     515.685
  P      -35.883    -243.095     516.407
  C      -35.102    -244.956     514.777
  O      -35.999    -244.585     515.813
  C      -35.200    -246.451     514.485
  O      -34.526    -247.184     515.550
  C      -36.639    -246.986     514.396
  O      -36.667    -248.022     513.406
  C      -36.844    -247.631     515.761
  O      -37.886    -248.603     515.758
  C      -35.445    -248.199     516.003
  N      -34.653    -252.033     519.164
  C      -34.784    -252.018     517.787
  N      -34.690    -253.204     517.154
  N      -34.990    -250.930     517.093
  C      -35.028    -249.808     517.856
  C      -34.918    -249.690     519.219
  C      -34.715    -250.907     519.978
  O      -34.614    -250.986     521.199
  N      -35.039    -248.381     519.615
  C      -35.222    -247.711     518.489
  N      -35.224    -248.532     517.397
  O      -37.022    -243.047     517.531
  O      -34.544    -242.725     516.950
  H      -37.835    -249.101     516.601
  H      -36.809    -242.369     518.198
  H      -34.511    -252.903     519.651
  H      -35.360    -246.640     518.416
  H      -35.259    -249.112     515.424
  H      -37.089    -246.865     516.507
  H      -34.488    -254.077     517.616
  H      -37.390    -246.228     514.162
  H      -34.741    -253.209     516.142
  H      -34.648    -246.662     513.561
  H      -34.081    -244.715     515.088
  H      -35.342    -244.382     513.873
  P      -36.834    -247.591     511.874
  C      -39.236    -246.606     511.707
  O      -38.385    -247.718     511.486
  O      -36.169    -248.818     511.086
  O      -36.179    -246.294     511.525
  H      -35.817    -248.511     510.230
  H      -40.231    -246.851     511.398
  H      -38.883    -245.769     511.142
  H      -39.237    -246.359     512.748

 6  7  8  9  10  11  12  13  14  15  26  29  33  34 0
 6-311+G(2d,p)
 ****
 36  38  39  40  41 0
 6-311+G(2d,p)
 ****
 1  2  3  4  5  16  17  18  19  20  21  22  23  24  25 0
 3-21G
 ****
 27  28  30  31  32  35  37  42  43  44  45  46  47 0
 3-21G
 ****
 48  49 0
 3-21G
 ****


