%nproc=1
%NoSave
%Mem=1900MB
#P OB98/GEN NMR

erre ene a

0 1
  C       59.694      67.829    -150.493
  O       59.483      68.951    -151.335
  P       60.693      69.997    -151.500
  C       60.053      71.868    -149.764
  O       60.836      70.725    -150.080
  C       60.889      72.873    -148.965
  O       61.471      72.219    -147.815
  C       62.066      73.471    -149.723
  O       61.647      74.482    -150.633
  C       62.934      73.971    -148.578
  O       62.447      75.228    -148.088
  C       62.723      72.870    -147.515
  N       63.818      71.903    -147.453
  C       65.049      72.398    -147.031
  O       65.235      73.574    -146.717
  N       66.078      71.487    -147.000
  C       66.014      70.185    -147.402
  O       66.974      69.429    -147.391
  C       64.695      69.730    -147.868
  C       63.677      70.593    -147.873
  O       60.008      71.088    -152.453
  O       61.938      69.372    -152.038
  H       59.041      71.109    -152.345
  H       61.503      75.093    -147.863
  H       66.977      71.816    -146.671
  H       64.604      68.703    -148.203
  H       62.701      70.284    -148.227
  H       62.604      73.321    -146.522
  H       63.983      74.114    -148.869
  H       62.594      72.683    -150.269
  H       60.219      73.667    -148.602
  H       59.188      71.560    -149.175
  H       59.696      72.326    -150.691
  P       61.900      74.188    -152.193
  C       64.041      75.659    -152.493
  O       63.472      74.370    -152.441
  O       61.239      75.488    -152.862
  O       61.319      72.895    -152.665
  H       61.455      76.310    -152.382
  H       65.113      75.577    -152.304
  H       63.602      76.323    -151.741
  H       63.886      76.086    -153.485
  H       58.812      67.224    -150.478
  H       59.914      68.164    -149.501
  H       60.515      67.253    -150.865

 3  4  5  6  7  8  9  10  11  12  13  24  28  29  30  31  32 0
 6-311+G(2d,p)
 ****
 33  34 0
 6-311+G(2d,p)
 ****
 1  2  14  15  16  17  18  19  20  21  22  23  25  26  27 0
 3-21G
 ****
 35  36  37  38  39  40  41  42  43  44  45 0
 3-21G
 ****


