%nproc=1
%NoSave
%Mem=1900MB
#P OB98/GEN NMR

erre ene a

0 1
  C       53.190      93.942     -94.602
  O       52.115      94.791     -94.258
  H       53.607      94.272     -95.556
  H       52.831      92.916     -94.712
  H       53.971      93.985     -93.840
  P       51.414      94.534     -92.838
  C       49.384      93.432     -94.017
  O       49.835      94.439     -93.123
  C       47.986      93.758     -94.537
  O       47.066      93.821     -93.407
  C       47.886      95.096     -95.285
  O       46.926      94.944     -96.339
  C       47.294      96.025     -94.238
  O       46.661      97.166     -94.812
  C       46.345      95.062     -93.527
  N       42.861      97.850     -91.204
  C       42.978      97.483     -92.531
  N       42.019      97.926     -93.372
  N       43.951      96.745     -92.994
  C       44.821      96.344     -92.036
  C       44.820      96.641     -90.694
  C       43.751      97.483     -90.199
  O       43.605      97.857     -89.040
  N       45.894      96.066     -90.060
  C       46.539      95.423     -91.016
  N       45.927      95.562     -92.232
  O       51.581      95.946     -92.104
  O       51.986      93.415     -92.035
  H       45.840      96.864     -95.254
  H       52.388      95.949     -91.556
  H       42.099      98.431     -90.902
  H       47.446      94.850     -90.884
  H       45.432      94.875     -94.105
  H       48.079      96.377     -93.557
  H       41.216      98.459     -93.078
  H       48.834      95.457     -95.695
  H       42.064      97.632     -94.340
  H       47.648      92.930     -95.171
  H       49.356      92.473     -93.487
  H       50.085      93.355     -94.855
  P       47.453      94.457     -97.770
  C       48.231      96.865     -98.366
  O       47.478      95.725     -98.750
  O       46.219      93.602     -98.331
  O       48.706      93.648     -97.722
  H       46.542      92.921     -98.949
  H       48.147      97.619     -99.121
  H       49.259      96.591     -98.249
  H       47.855      97.245     -97.439

 6  7  8  9  10  11  12  13  14  15  26  29  33  34 0
 6-311+G(2d,p)
 ****
 36  38  39  40  41 0
 6-311+G(2d,p)
 ****
 1  2  3  4  5  16  17  18  19  20  21  22  23  24  25 0
 3-21G
 ****
 27  28  30  31  32  35  37  42  43  44  45  46  47 0
 3-21G
 ****
 48  49 0
 3-21G
 ****


