%nproc=1
%NoSave
%Mem=1900MB
#P OB98/GEN NMR

erre ene a

0 1
  C       18.071     229.241     100.275
  O       18.317     229.003     101.644
  H       18.290     230.289     100.058
  H       17.018     229.048     100.049
  H       18.703     228.613      99.644
  P       18.389     227.491     102.164
  C       20.127     225.584     102.112
  O       19.774     226.876     101.639
  C       21.385     225.071     101.400
  O       21.097     224.920      99.986
  C       22.542     226.068     101.515
  O       23.813     225.426     101.460
  C       22.369     226.928     100.274
  O       23.572     227.582      99.873
  C       21.859     225.901      99.264
  N       20.278     225.591      94.429
  C       21.285     224.892      95.064
  N       21.958     223.990      94.311
  N       21.619     225.078      96.315
  C       20.911     226.059      96.923
  C       19.906     226.836      96.393
  C       19.523     226.597      95.017
  O       18.654     227.203      94.399
  N       19.430     227.736      97.313
  C       20.147     227.509      98.395
  N       21.043     226.483      98.216
  O       17.308     226.729     101.259
  O       18.117     227.296     103.625
  H       24.274     226.907      99.838
  H       17.013     225.913     101.699
  H       20.042     225.389      93.473
  H       20.047     228.043      99.331
  H       22.697     225.385      98.780
  H       21.636     227.707     100.496
  H       21.864     223.962      93.308
  H       22.489     226.671     102.419
  H       22.878     223.707      94.659
  H       21.651     224.077     101.778
  H       19.277     224.928     101.912
  H       20.276     225.603     103.193
  P       24.723     225.414     102.778
  C       24.628     223.755     104.837
  O       24.694     223.964     103.444
  O       23.911     226.325     103.808
  O       26.119     225.913     102.568
  H       24.418     227.129     104.025
  H       24.620     222.704     105.040
  H       23.734     224.199     105.222
  H       25.479     224.203     105.306

 6  7  8  9  10  11  12  13  14  15  26  29  33  34 0
 6-311+G(2d,p)
 ****
 36  38  39  40  41 0
 6-311+G(2d,p)
 ****
 1  2  3  4  5  16  17  18  19  20  21  22  23  24  25 0
 3-21G
 ****
 27  28  30  31  32  35  37  42  43  44  45  46  47 0
 3-21G
 ****
 48  49 0
 3-21G
 ****


