%nproc=1
%NoSave
%Mem=1900MB
#P OB98/GEN NMR

erre ene a

0 1
  C     -211.056     -43.834      41.555
  O     -211.792     -44.175      42.712
  H     -209.996     -43.785      41.817
  H     -211.370     -42.855      41.185
  H     -211.188     -44.587      40.774
  P     -213.352     -44.512      42.564
  C     -215.501     -43.090      42.674
  O     -214.112     -43.114      42.370
  C     -216.116     -41.778      42.197
  O     -215.837     -41.579      40.795
  C     -217.633     -41.719      42.329
  O     -218.015     -41.503      43.675
  C     -217.955     -40.575      41.380
  O     -217.718     -39.306      42.009
  C     -216.939     -40.826      40.240
  N     -217.520     -41.518      39.091
  C     -218.217     -40.729      38.182
  O     -218.384     -39.520      38.331
  N     -218.735     -41.385      37.096
  C     -218.696     -42.733      36.883
  O     -219.223     -43.278      35.918
  C     -217.977     -43.519      37.894
  C     -217.430     -42.886      38.935
  O     -213.928     -45.398      43.618
  O     -213.456     -45.180      41.112
  H     -217.886     -38.624      41.330
  H     -213.501     -46.150      41.199
  H     -219.254     -40.833      36.433
  H     -217.930     -44.592      37.760
  H     -216.900     -43.452      39.694
  H     -216.520     -39.874      39.889
  H     -218.996     -40.577      41.057
  H     -218.084     -42.637      41.937
  H     -215.644     -40.958      42.753
  H     -215.624     -43.179      43.760
  H     -215.983     -43.945      42.190
  P     -219.504     -41.820      44.162
  C     -221.696     -40.521      44.429
  O     -220.408     -40.534      43.828
  O     -219.624     -42.316      45.565
  O     -220.030     -42.912      43.118
  H     -220.055     -43.792      43.543
  H     -222.213     -39.628      44.145
  H     -221.593     -40.550      45.494
  H     -222.251     -41.375      44.101

 6  7  8  9  10  11  12  13  14  15  16  26  31  32  33  34  35 0
 6-311+G(2d,p)
 ****
 36  37 0
 6-311+G(2d,p)
 ****
 1  2  3  4  5  17  18  19  20  21  22  23  24  25 0
 3-21G
 ****
 27  28  29  30  38  39  40  41  42  43  44  45 0
 3-21G
 ****


