%nproc=1
%NoSave
%Mem=1900MB
#P OB98/GEN NMR

erre ene a

0 1
  C      701.735      77.498     351.763
  O      701.773      76.834     353.009
  H      702.687      77.338     351.251
  H      701.592      78.573     351.908
  H      700.931      77.098     351.138
  P      700.489      76.915     353.962
  C      699.251      75.158     355.420
  O      700.393      75.450     354.624
  C      699.397      73.789     356.073
  O      699.469      72.740     355.081
  C      700.661      73.609     356.918
  O      700.622      74.291     358.153
  C      700.647      72.096     357.083
  O      699.654      71.728     358.055
  C      700.237      71.646     355.660
  N      701.391      71.322     354.815
  C      702.022      70.098     355.066
  O      701.624      69.352     355.963
  N      703.127      69.758     354.318
  C      703.567      70.579     353.415
  N      704.664      70.191     352.704
  C      702.942      71.882     353.133
  C      701.869      72.189     353.855
  O      699.230      77.412     353.328
  O      700.967      77.798     355.210
  H      700.085      71.778     358.930
  H      700.200      77.889     355.830
  H      703.366      72.542     352.385
  H      701.355      73.131     353.709
  H      699.574      70.775     355.706
  H      701.601      71.699     357.427
  H      701.556      73.888     356.339
  H      698.494      73.608     356.668
  H      705.072      69.290     352.924
  H      698.370      75.198     354.777
  H      705.117      70.801     352.036
  H      699.148      75.911     356.211
  P      702.041      74.685     358.810
  C      702.700      75.966     360.990
  O      701.716      75.709     360.000
  O      702.721      75.593     357.684
  O      702.894      73.524     359.214
  H      703.355      75.074     357.154
  H      702.316      76.668     361.701
  H      703.575      76.371     360.526
  H      702.950      75.053     361.489

 6  7  8  9  10  11  12  13  14  15  16  26  30  31  32  33  35 0
 6-311+G(2d,p)
 ****
 37  38 0
 6-311+G(2d,p)
 ****
 1  2  3  4  5  17  18  19  20  21  22  23  24  25 0
 3-21G
 ****
 27  28  29  34  36  39  40  41  42  43  44  45  46 0
 3-21G
 ****


