%nproc=1
%NoSave
%Mem=1900MB
#P OB98/GEN NMR

erre ene a

0 1
  C      -41.890     126.341    -281.503
  O      -41.133     127.494    -281.811
  H      -41.610     125.545    -282.197
  H      -42.957     126.546    -281.622
  H      -41.688     126.004    -280.483
  P      -41.254     128.776    -280.856
  C      -42.938     130.724    -280.781
  O      -42.749     129.335    -281.017
  C      -44.412     131.084    -280.955
  O      -44.842     130.800    -282.304
  C      -45.350     130.298    -280.046
  O      -45.294     130.786    -278.720
  C      -46.675     130.513    -280.761
  O      -47.221     131.806    -280.458
  C      -46.242     130.442    -282.245
  N      -46.476     129.126    -282.843
  C      -47.769     128.877    -283.289
  O      -48.683     129.693    -283.197
  N      -47.990     127.628    -283.809
  C      -47.086     126.606    -283.836
  O      -47.386     125.447    -284.107
  C      -45.719     126.950    -283.423
  C      -45.482     128.171    -282.937
  O      -40.178     129.798    -281.005
  O      -41.265     128.148    -279.383
  H      -40.380     128.244    -278.985
  H      -48.067     131.870    -280.944
  H      -48.936     127.421    -284.092
  H      -44.956     126.182    -283.489
  H      -44.487     128.436    -282.595
  H      -46.785     131.188    -282.839
  H      -47.427     129.774    -280.478
  H      -45.100     129.231    -280.079
  H      -44.523     132.163    -280.786
  H      -42.340     131.286    -281.506
  H      -42.596     130.967    -279.771
  P      -44.936     129.820    -277.497
  C      -46.146     128.036    -276.110
  O      -46.131     128.764    -277.331
  O      -44.545     130.515    -276.235
  O      -43.732     128.918    -278.047
  H      -42.982     128.968    -277.421
  H      -46.979     127.365    -276.105
  H      -46.232     128.717    -275.290
  H      -45.238     127.478    -276.016

 6  7  8  9  10  11  12  13  14  15  16  27  31  32  33  34  35 0
 6-311+G(2d,p)
 ****
 36  37 0
 6-311+G(2d,p)
 ****
 1  2  3  4  5  17  18  19  20  21  22  23  24  25 0
 3-21G
 ****
 26  28  29  30  38  39  40  41  42  43  44  45 0
 3-21G
 ****


