%nproc=1
%NoSave
%Mem=1900MB
#P OB98/GEN NMR

erre ene a

0 1
  C       20.159     364.552    -107.895
  O       20.918     363.364    -107.803
  H       19.566     364.659    -106.983
  H       19.481     364.501    -108.749
  H       20.811     365.425    -107.990
  P       22.031     363.071    -108.919
  C       21.238     360.626    -108.701
  O       22.349     361.501    -108.855
  C       21.528     359.606    -107.605
  O       22.647     358.775    -107.983
  C       21.903     360.225    -106.263
  O       20.758     360.732    -105.601
  C       22.566     359.037    -105.579
  O       21.580     358.142    -105.041
  C       23.319     358.384    -106.763
  N       24.736     358.736    -106.808
  C       25.542     358.193    -105.813
  O       25.106     357.488    -104.906
  N       26.875     358.513    -105.883
  C       27.446     359.366    -106.783
  O       28.639     359.659    -106.770
  C       26.540     359.934    -107.791
  C       25.249     359.599    -107.760
  O       23.233     363.955    -108.888
  O       21.229     363.218    -110.297
  H       22.071     357.420    -104.603
  H       21.409     364.091    -110.692
  H       27.473     358.141    -105.163
  H       26.958     360.621    -108.516
  H       24.564     360.016    -108.491
  H       23.241     357.289    -106.701
  H       23.209     359.333    -104.750
  H       22.652     361.011    -106.405
  H       20.647     358.956    -107.501
  H       21.065     360.105    -109.650
  H       20.351     361.220    -108.456
  P       20.813     362.136    -104.839
  C       21.460     361.174    -102.555
  O       20.459     361.862    -103.294
  O       20.022     363.234    -105.471
  O       22.369     362.496    -104.794
  H       22.563     363.209    -105.435
  H       21.131     361.042    -101.546
  H       22.365     361.745    -102.563
  H       21.638     360.217    -103.000

 6  7  8  9  10  11  12  13  14  15  16  26  31  32  33  34  35 0
 6-311+G(2d,p)
 ****
 36  37 0
 6-311+G(2d,p)
 ****
 1  2  3  4  5  17  18  19  20  21  22  23  24  25 0
 3-21G
 ****
 27  28  29  30  38  39  40  41  42  43  44  45 0
 3-21G
 ****


