%nproc=1
%NoSave
%Mem=1900MB
#P OB98/GEN NMR

erre ene a

0 1
  C      746.637    -623.009     915.996
  O      747.044    -623.784     917.125
  P      746.154    -623.657     918.456
  C      747.868    -622.188     919.794
  O      746.594    -622.292     919.157
  C      748.036    -620.800     920.401
  O      748.270    -619.816     919.353
  C      746.827    -620.302     921.162
  O      746.685    -620.938     922.418
  C      747.120    -618.799     921.230
  O      748.052    -618.533     922.297
  C      747.792    -618.545     919.858
  N      746.913    -617.898     918.909
  C      747.319    -616.638     918.464
  O      748.330    -616.075     918.863
  N      746.486    -616.016     917.569
  C      745.306    -616.523     917.088
  O      744.607    -615.930     916.275
  C      744.897    -617.834     917.625
  C      745.707    -618.455     918.496
  O      746.813    -624.811     919.378
  O      744.687    -623.837     918.193
  H      747.775    -624.883     919.244
  H      747.722    -619.007     923.080
  H      746.772    -615.118     917.225
  H      743.963    -618.237     917.302
  H      745.420    -619.417     918.911
  H      748.677    -617.915     920.000
  H      746.220    -618.196     921.426
  H      745.916    -620.457     920.553
  H      748.914    -620.812     921.072
  H      748.664    -622.358     919.062
  H      747.941    -622.969     920.562
  P      745.943    -622.362     922.437
  C      743.569    -621.271     922.275
  O      744.528    -622.156     921.726
  O      745.577    -622.505     923.997
  O      746.778    -623.480     921.885
  H      745.226    -621.687     924.375
  H      742.857    -621.001     921.511
  H      744.037    -620.355     922.682
  H      743.038    -621.772     923.088
  H      747.309    -623.184     915.182
  H      746.651    -621.970     916.253
  H      745.646    -623.292     915.707

 3  4  5  6  7  8  9  10  11  12  13  24  28  29  30  31  32 0
 6-311+G(2d,p)
 ****
 33  34 0
 6-311+G(2d,p)
 ****
 1  2  14  15  16  17  18  19  20  21  22  23  25  26  27 0
 3-21G
 ****
 35  36  37  38  39  40  41  42  43  44  45 0
 3-21G
 ****


