%nproc=1
%NoSave
%Mem=1900MB
#P OB98/GEN NMR

erre ene a

0 1
  C     -455.699    -489.288    -205.289
  O     -454.881    -488.158    -205.078
  P     -455.533    -486.706    -204.869
  C     -455.393    -486.933    -202.302
  O     -456.250    -486.765    -203.433
  C     -455.328    -485.632    -201.481
  O     -456.644    -485.253    -201.037
  C     -454.479    -485.753    -200.224
  O     -453.099    -485.698    -200.540
  C     -454.986    -484.559    -199.416
  O     -454.352    -483.343    -199.833
  C     -456.486    -484.543    -199.782
  N     -457.324    -485.117    -198.742
  C     -457.693    -484.245    -197.707
  O     -457.292    -483.083    -197.701
  N     -458.475    -484.724    -196.686
  C     -458.830    -485.976    -196.687
  N     -459.591    -486.391    -195.637
  C     -458.433    -486.936    -197.733
  C     -457.691    -486.436    -198.724
  O     -456.391    -486.231    -205.987
  O     -454.264    -485.773    -204.593
  H     -454.451    -483.304    -200.809
  H     -453.753    -485.595    -205.424
  H     -458.753    -487.967    -197.685
  H     -457.356    -487.073    -199.533
  H     -456.822    -483.518    -199.974
  H     -454.801    -484.677    -198.346
  H     -454.719    -486.681    -199.695
  H     -454.931    -484.848    -202.135
  H     -459.814    -485.718    -194.920
  H     -454.391    -487.183    -202.662
  H     -459.895    -487.352    -195.522
  H     -455.758    -487.760    -201.689
  P     -452.226    -487.044    -200.531
  C     -450.844    -486.498    -202.627
  O     -451.805    -487.359    -202.047
  O     -452.813    -488.187    -199.787
  O     -450.840    -486.583    -199.861
  H     -450.563    -487.262    -199.216
  H     -450.414    -486.988    -203.501
  H     -450.051    -486.245    -201.916
  H     -451.342    -485.573    -202.959
  H     -455.085    -490.156    -205.406
  H     -456.285    -489.144    -206.173
  H     -456.348    -489.421    -204.449

 3  4  5  6  7  8  9  10  11  12  13  23  27  28  29  30  32 0
 6-311+G(2d,p)
 ****
 34  35 0
 6-311+G(2d,p)
 ****
 1  2  14  15  16  17  18  19  20  21  22  24  25  26 0
 3-21G
 ****
 31  33  36  37  38  39  40  41  42  43  44  45  46 0
 3-21G
 ****


