%nproc=1
%NoSave
%Mem=1900MB
#P OB98/GEN NMR

erre ene a

0 1
  C      194.260    -231.385      34.586
  O      193.520    -232.580      34.776
  P      193.612    -233.703      33.631
  C      191.556    -232.660      32.432
  O      192.903    -233.099      32.324
  C      190.842    -232.745      31.082
  O      191.428    -231.769      30.177
  C      190.935    -234.119      30.397
  O      189.701    -234.315      29.699
  C      192.086    -233.915      29.428
  O      192.155    -234.886      28.398
  C      191.814    -232.481      28.980
  N      195.137    -232.764      25.104
  C      194.052    -233.510      25.418
  N      193.210    -233.368      26.463
  C      193.571    -232.323      27.225
  C      194.664    -231.487      27.042
  C      195.467    -231.738      25.922
  N      196.580    -230.980      25.612
  N      194.726    -230.543      28.048
  C      193.692    -230.808      28.825
  N      192.956    -231.860      28.355
  O      192.575    -234.813      34.129
  O      194.983    -234.268      33.410
  H      192.275    -235.776      28.786
  H      192.910    -235.712      33.952
  H      193.832    -234.329      24.737
  H      193.447    -230.278      29.733
  H      190.973    -232.426      28.276
  H      193.033    -233.971      29.983
  H      191.085    -234.945      31.099
  H      189.790    -232.466      31.228
  H      191.540    -231.616      32.764
  H      197.201    -231.361      24.908
  H      196.928    -230.359      26.329
  H      191.038    -233.258      33.189
  P      189.120    -235.807      29.556
  C      190.155    -236.105      27.223
  O      190.161    -236.532      28.569
  O      187.876    -235.556      28.583
  O      188.786    -236.501      30.833
  H      188.133    -235.043      27.793
  H      190.970    -236.603      26.690
  H      190.311    -235.018      27.168
  H      189.207    -236.370      26.748
  H      194.105    -230.733      35.420
  H      193.932    -230.901      33.690
  H      195.301    -231.619      34.504

 3  4  5  6  7  8  9  10  11  12  22  25  29  30  31  32 0
 6-311+G(2d,p)
 ****
 33  36  37 0
 6-311+G(2d,p)
 ****
 1  2  13  14  15  16  17  18  19  20  21  23  24  26 0
 3-21G
 ****
 27  28  34  35  38  39  40  41  42  43  44  45  46  47  48 0
 3-21G
 ****


