%nproc=1
%NoSave
%Mem=1900MB
#P OB98/GEN NMR

erre ene a

0 1
  C     -125.689    -119.838    -176.757
  O     -125.075    -121.091    -176.539
  P     -125.767    -122.210    -175.624
  C     -126.571    -122.452    -173.203
  O     -125.851    -121.646    -174.127
  C     -126.634    -121.798    -171.822
  O     -127.226    -120.479    -171.941
  C     -127.447    -122.589    -170.788
  O     -126.775    -122.463    -169.531
  C     -128.772    -121.851    -170.761
  O     -129.491    -122.077    -169.556
  C     -128.302    -120.409    -170.983
  N     -129.374    -119.540    -171.447
  C     -130.194    -118.973    -170.470
  O     -130.081    -119.314    -169.290
  N     -131.130    -118.046    -170.861
  C     -131.351    -117.850    -172.123
  N     -132.238    -116.875    -172.466
  C     -130.669    -118.622    -173.186
  C     -129.675    -119.409    -172.784
  O     -125.178    -123.576    -175.741
  O     -127.301    -122.204    -176.097
  H     -127.563    -123.116    -176.331
  H     -128.901    -121.897    -168.796
  H     -130.977    -118.518    -174.216
  H     -129.097    -119.994    -173.490
  H     -127.886    -119.992    -170.055
  H     -129.397    -122.184    -171.600
  H     -127.540    -123.649    -171.044
  H     -125.602    -121.660    -171.464
  H     -132.652    -116.340    -171.713
  H     -126.058    -123.411    -173.119
  H     -132.235    -116.443    -173.387
  H     -127.582    -122.642    -173.584
  P     -126.542    -123.790    -168.654
  C     -127.972    -125.265    -167.065
  O     -127.892    -124.090    -167.845
  O     -125.570    -123.241    -167.494
  O     -125.895    -124.944    -169.350
  H     -125.046    -123.987    -167.139
  H     -128.977    -125.341    -166.646
  H     -127.248    -125.228    -166.244
  H     -127.783    -126.148    -167.685
  H     -125.067    -119.242    -177.392
  H     -125.825    -119.339    -175.820
  H     -126.640    -119.984    -177.225

 3  4  5  6  7  8  9  10  11  12  13  24  27  28  29  30  32 0
 6-311+G(2d,p)
 ****
 34  35 0
 6-311+G(2d,p)
 ****
 1  2  14  15  16  17  18  19  20  21  22  23  25  26 0
 3-21G
 ****
 31  33  36  37  38  39  40  41  42  43  44  45  46 0
 3-21G
 ****


