%nproc=1
%NoSave
%Mem=1900MB
#P OB98/GEN NMR

erre ene a

0 1
  C      -25.665     -76.090      60.692
  O      -25.885     -75.169      61.747
  P      -27.401     -74.736      62.053
  C      -26.905     -72.506      60.818
  O      -27.791     -73.603      60.986
  C      -27.620     -71.322      60.164
  O      -27.996     -71.691      58.807
  C      -28.899     -70.870      60.888
  O      -28.979     -69.449      60.735
  C      -29.982     -71.572      60.087
  O      -31.281     -71.041      60.283
  C      -29.412     -71.431      58.677
  N      -31.468     -71.871      54.017
  C      -30.885     -70.828      54.649
  N      -30.353     -70.788      55.889
  C      -30.454     -71.987      56.487
  C      -31.038     -73.135      55.977
  C      -31.563     -73.049      54.678
  N      -32.167     -74.115      54.039
  N      -30.979     -74.165      56.893
  C      -30.372     -73.647      57.942
  N      -30.017     -72.343      57.734
  O      -27.273     -73.921      63.423
  O      -28.371     -75.871      62.164
  H      -31.899     -71.420      59.627
  H      -28.026     -74.105      64.016
  H      -30.840     -69.902      54.084
  H      -30.177     -74.166      58.871
  H      -29.531     -70.413      58.287
  H      -30.018     -72.626      60.385
  H      -28.903     -71.116      61.954
  H      -26.911     -70.488      60.091
  H      -26.074     -72.805      60.170
  H      -32.683     -73.898      53.198
  H      -32.413     -74.913      54.610
  H      -26.487     -72.224      61.791
  P      -29.611     -68.575      61.924
  C      -31.752     -68.318      60.526
  O      -31.196     -68.770      61.746
  O      -29.404     -67.092      61.354
  O      -29.038     -68.808      63.279
  H      -29.736     -67.008      60.443
  H      -32.809     -68.599      60.499
  H      -31.239     -68.783      59.679
  H      -31.674     -67.229      60.462
  H      -24.617     -76.286      60.602
  H      -26.030     -75.676      59.775
  H      -26.182     -77.003      60.902

 3  4  5  6  7  8  9  10  11  12  22  25  29  30  31  32 0
 6-311+G(2d,p)
 ****
 33  36  37 0
 6-311+G(2d,p)
 ****
 1  2  13  14  15  16  17  18  19  20  21  23  24  26 0
 3-21G
 ****
 27  28  34  35  38  39  40  41  42  43  44  45  46  47  48 0
 3-21G
 ****


