%nproc=1
%NoSave
%Mem=1900MB
#P OB98/GEN NMR

erre ene a

0 1
  C     -304.161     -57.543      57.577
  O     -303.668     -58.770      58.081
  H     -304.952     -57.727      56.846
  H     -304.574     -56.963      58.407
  H     -303.351     -56.972      57.116
  P     -303.049     -59.793      57.013
  C     -300.799     -59.760      58.299
  O     -301.453     -59.600      57.047
  C     -300.036     -58.486      58.656
  O     -300.995     -57.412      58.819
  C     -299.197     -58.578      59.943
  O     -297.826     -58.293      59.664
  C     -299.744     -57.473      60.832
  O     -298.732     -56.769      61.548
  C     -300.480     -56.563      59.854
  N     -301.864     -52.021      61.701
  C     -300.934     -52.365      60.784
  N     -300.686     -53.582      60.256
  C     -301.543     -54.496      60.748
  C     -302.558     -54.290      61.669
  C     -302.696     -52.983      62.167
  N     -303.607     -52.641      63.140
  N     -303.222     -55.473      61.937
  C     -302.589     -56.384      61.228
  N     -301.557     -55.842      60.510
  O     -303.473     -59.155      55.605
  O     -303.518     -61.203      57.145
  H     -299.189     -56.128      62.121
  H     -303.854     -59.848      55.032
  H     -300.294     -51.559      60.433
  H     -302.804     -57.445      61.230
  H     -299.808     -55.829      59.391
  H     -300.438     -57.915      61.560
  H     -299.282     -59.556      60.432
  H     -299.394     -58.219      57.806
  H     -300.086     -60.591      58.236
  H     -303.559     -51.713      63.522
  H     -304.154     -53.374      63.569
  H     -301.543     -59.993      59.064
  P     -297.110     -59.204      58.545
  C     -295.669     -57.558      57.135
  O     -296.883     -58.286      57.251
  O     -298.284     -60.196      58.093
  O     -295.915     -59.942      59.041
  H     -297.905     -61.032      57.762
  H     -295.674     -57.000      56.222
  H     -294.844     -58.239      57.132
  H     -295.575     -56.887      57.963

 6  7  8  9  10  11  12  13  14  15  25  28  32  33  34  35 0
 6-311+G(2d,p)
 ****
 36  39  40 0
 6-311+G(2d,p)
 ****
 1  2  3  4  5  16  17  18  19  20  21  22  23  24 0
 3-21G
 ****
 26  27  29  30  31  37  38  41  42  43  44  45  46  47  48 0
 3-21G
 ****


