%nproc=1
%NoSave
%Mem=1900MB
#P OB98/GEN NMR

erre ene a

0 1
  C      334.834    -394.525    -486.405
  O      335.251    -395.442    -487.399
  H      334.963    -394.991    -485.425
  H      333.776    -394.290    -486.545
  H      335.431    -393.611    -486.444
  P      335.458    -394.859    -488.880
  C      337.952    -394.188    -489.123
  O      336.641    -393.777    -488.779
  C      338.754    -393.011    -489.671
  O      338.199    -392.569    -490.931
  C      338.776    -391.785    -488.758
  O      339.775    -391.904    -487.753
  C      339.129    -390.698    -489.759
  O      340.542    -390.751    -490.060
  C      338.314    -391.116    -490.990
  N      335.645    -386.862    -491.695
  C      337.011    -387.051    -491.629
  N      337.777    -385.944    -491.761
  N      337.580    -388.213    -491.446
  C      336.693    -389.225    -491.308
  C      335.320    -389.167    -491.345
  C      334.704    -387.878    -491.566
  O      333.496    -387.661    -491.647
  N      334.754    -390.400    -491.165
  C      335.786    -391.203    -490.994
  N      336.983    -390.540    -491.064
  O      334.141    -393.969    -489.095
  O      335.603    -395.885    -489.953
  H      340.721    -390.051    -490.714
  H      333.518    -394.463    -489.662
  H      335.258    -385.945    -491.829
  H      335.719    -392.270    -490.818
  H      338.824    -390.870    -491.926
  H      338.924    -389.693    -489.379
  H      337.402    -385.016    -491.883
  H      337.787    -391.583    -488.329
  H      338.782    -386.060    -491.719
  H      339.773    -393.360    -489.870
  H      337.896    -394.976    -489.885
  H      338.443    -394.589    -488.229
  P      339.473    -391.272    -486.307
  C      338.694    -393.206    -484.766
  O      338.307    -392.159    -485.647
  O      338.736    -389.898    -486.671
  O      340.671    -391.041    -485.457
  H      339.306    -389.143    -486.435
  H      337.821    -393.709    -484.404
  H      339.237    -392.795    -483.941
  H      339.315    -393.902    -485.290

 6  7  8  9  10  11  12  13  14  15  26  29  33  34 0
 6-311+G(2d,p)
 ****
 36  38  39  40  41 0
 6-311+G(2d,p)
 ****
 1  2  3  4  5  16  17  18  19  20  21  22  23  24  25 0
 3-21G
 ****
 27  28  30  31  32  35  37  42  43  44  45  46  47 0
 3-21G
 ****
 48  49 0
 3-21G
 ****


