%nproc=1
%NoSave
%Mem=1900MB
#P OB98/GEN NMR

erre ene a

0 1
  C       33.919     -74.570      26.166
  O       35.156     -75.227      26.362
  H       34.093     -73.526      25.897
  H       33.387     -75.062      25.348
  H       33.306     -74.626      27.070
  P       36.022     -74.772      27.634
  C       34.485     -75.260      29.672
  O       35.545     -75.715      28.845
  C       33.846     -76.434      30.415
  O       33.601     -77.508      29.469
  C       34.724     -76.997      31.538
  O       33.889     -77.359      32.640
  C       35.334     -78.243      30.920
  O       35.715     -79.201      31.900
  C       34.212     -78.703      29.995
  N       35.897     -83.369      28.790
  C       35.373     -82.863      29.927
  N       34.942     -81.606      30.164
  C       35.049     -80.853      29.055
  C       35.563     -81.228      27.826
  C       36.013     -82.554      27.714
  N       36.582     -83.067      26.571
  N       35.540     -80.161      26.946
  C       35.019     -79.165      27.636
  N       34.710     -79.534      28.914
  O       35.379     -73.347      27.992
  O       37.494     -74.685      27.420
  H       36.038     -80.002      31.438
  H       35.740     -72.669      27.391
  H       35.296     -83.558      30.760
  H       34.854     -78.164      27.261
  H       33.443     -79.282      30.522
  H       36.227     -77.970      30.344
  H       35.485     -76.291      31.875
  H       32.868     -76.119      30.796
  H       33.731     -74.770      29.048
  H       36.927     -84.012      26.597
  H       36.732     -82.458      25.780
  H       34.877     -74.536      30.395
  P       33.479     -76.184      33.653
  C       30.988     -76.029      32.955
  O       31.915     -76.321      33.990
  O       33.559     -74.868      32.746
  O       34.377     -76.081      34.843
  H       34.083     -74.181      33.199
  H       29.991     -76.162      33.321
  H       31.156     -76.689      32.129
  H       31.118     -75.016      32.635

 6  7  8  9  10  11  12  13  14  15  25  28  32  33  34  35 0
 6-311+G(2d,p)
 ****
 36  39  40 0
 6-311+G(2d,p)
 ****
 1  2  3  4  5  16  17  18  19  20  21  22  23  24 0
 3-21G
 ****
 26  27  29  30  31  37  38  41  42  43  44  45  46  47 0
 3-21G
 ****
 48 0
 3-21G
 ****


