%nproc=1
%NoSave
%Mem=1900MB
#P OB98/GEN NMR

erre ene a

0 1
  C        1.610     941.044     323.434
  O        1.406     940.548     322.127
  H        2.427     941.769     323.410
  H        1.884     940.226     324.105
  H        0.707     941.542     323.802
  P        0.116     939.621     321.901
  C        0.226     939.938     319.325
  O        0.239     939.023     320.414
  C        0.222     939.169     318.004
  O        1.576     938.857     317.599
  C       -0.535     937.842     318.046
  O       -1.929     938.030     317.881
  C        0.082     937.143     316.849
  O       -0.500     937.666     315.630
  C        1.552     937.550     316.942
  N        3.545     932.888     317.086
  C        2.729     933.475     316.130
  N        2.399     932.719     315.073
  N        2.285     934.706     316.216
  C        2.696     935.349     317.341
  C        3.495     934.865     318.354
  C        3.994     933.512     318.244
  O        4.729     932.951     319.049
  N        3.698     935.812     319.321
  C        3.009     936.867     318.904
  N        2.376     936.630     317.712
  O       -1.084     940.674     321.773
  O       -0.155     938.619     322.980
  H       -1.451     937.487     315.672
  H       -1.885     940.299     322.184
  H        3.851     931.940     316.976
  H        2.941     937.805     319.434
  H        2.032     937.662     315.967
  H       -0.101     936.064     316.853
  H        2.668     931.756     314.969
  H       -0.295     937.280     318.956
  H        1.838     933.152     314.345
  H       -0.200     939.830     317.236
  H        1.122     940.560     319.380
  H       -0.659     940.566     319.397
  P       -2.907     937.170     318.824
  C       -4.660     938.943     319.539
  O       -4.357     937.854     318.682
  O       -2.433     937.588     320.297
  O       -2.850     935.698     318.621
  H       -2.691     936.898     320.939
  H       -5.650     939.294     319.333
  H       -3.959     939.734     319.372
  H       -4.600     938.622     320.558

 6  7  8  9  10  11  12  13  14  15  26  29  33  34 0
 6-311+G(2d,p)
 ****
 36  38  39  40  41 0
 6-311+G(2d,p)
 ****
 1  2  3  4  5  16  17  18  19  20  21  22  23  24  25 0
 3-21G
 ****
 27  28  30  31  32  35  37  42  43  44  45  46  47 0
 3-21G
 ****
 48  49 0
 3-21G
 ****


