%nproc=1
%NoSave
%Mem=1900MB
#P OB98/GEN NMR

erre ene a

0 1
  C      118.412      84.380     -62.676
  O      118.121      83.379     -63.657
  P      119.124      82.160     -63.947
  C      119.585      82.729     -66.407
  O      120.158      82.548     -65.117
  C      120.463      83.572     -67.344
  O      121.776      82.973     -67.507
  C      119.895      83.776     -68.755
  O      120.356      85.057     -69.185
  C      120.581      82.669     -69.537
  O      120.571      82.878     -70.942
  C      121.971      82.706     -68.908
  N      124.984      80.060     -72.092
  C      124.577      81.347     -72.106
  N      123.806      81.988     -71.205
  C      123.484      81.177     -70.184
  C      123.835      79.846     -70.029
  C      124.613      79.277     -71.053
  N      124.994      77.955     -71.070
  N      123.294      79.327     -68.868
  C      122.619      80.330     -68.341
  N      122.706      81.470     -69.096
  O      118.447      80.843     -64.149
  O      120.053      82.098     -62.643
  H      121.115      82.185     -71.358
  H      120.136      81.170     -62.353
  H      124.906      81.938     -72.956
  H      122.035      80.281     -67.431
  H      122.574      83.523     -69.323
  H      120.072      81.719     -69.340
  H      118.805      83.716     -68.799
  H      120.624      84.542     -66.858
  H      118.610      83.216     -66.291
  H      125.471      77.618     -71.891
  H      124.622      77.328     -70.371
  H      119.414      81.744     -66.856
  P      119.381      86.325     -69.256
  C      118.015      86.691     -71.388
  O      118.164      85.916     -70.212
  O      120.049      87.612     -69.609
  O      118.703      86.394     -67.806
  H      118.338      87.286     -67.660
  H      117.568      87.657     -71.136
  H      117.356      86.163     -72.082
  H      118.982      86.854     -71.873
  H      117.615      85.093     -62.647
  H      119.325      84.876     -62.932
  H      118.514      83.919     -61.716

 3  4  5  6  7  8  9  10  11  12  22  25  29  30  31  32 0
 6-311+G(2d,p)
 ****
 33  36  37 0
 6-311+G(2d,p)
 ****
 1  2  13  14  15  16  17  18  19  20  21  23  24  26 0
 3-21G
 ****
 27  28  34  35  38  39  40  41  42  43  44  45  46  47  48 0
 3-21G
 ****


