%nproc=1
%NoSave
%Mem=1900MB
#P OB98/GEN NMR

erre ene a

0 1
  C      621.116     344.174    -827.452
  O      622.469     343.984    -827.797
  H      620.608     344.673    -828.284
  H      621.050     344.815    -826.563
  H      620.615     343.219    -827.254
  P      623.351     342.968    -826.923
  C      624.644     344.590    -825.384
  O      624.703     343.744    -826.517
  C      625.933     345.411    -825.232
  O      627.028     344.516    -824.918
  C      626.283     346.100    -826.554
  O      627.018     347.312    -826.351
  C      627.192     345.092    -827.239
  O      628.032     345.667    -828.239
  C      627.935     344.506    -826.038
  N      631.693     341.587    -827.864
  C      631.527     342.948    -827.952
  N      632.475     343.620    -828.641
  N      630.516     343.596    -827.432
  C      629.602     342.778    -826.846
  C      629.644     341.417    -826.707
  C      630.789     340.716    -827.260
  O      630.980     339.500    -827.227
  N      628.529     340.934    -826.073
  C      627.814     342.011    -825.816
  N      628.428     343.163    -826.255
  O      623.877     341.897    -828.000
  O      622.640     342.298    -825.788
  H      627.463     346.164    -828.838
  H      624.085     341.052    -827.562
  H      632.497     341.141    -828.259
  H      626.854     342.024    -825.314
  H      628.801     345.136    -825.786
  H      626.550     344.354    -827.744
  H      633.179     343.154    -829.210
  H      625.395     346.316    -827.153
  H      632.231     344.565    -828.964
  H      625.847     346.109    -824.396
  H      624.495     343.952    -824.506
  H      623.775     345.255    -825.454
  P      626.189     348.690    -826.347
  C      626.942     349.772    -828.609
  O      627.022     349.749    -827.194
  O      626.321     349.197    -824.830
  O      624.764     348.538    -826.761
  H      625.476     349.060    -824.361
  H      627.571     350.550    -828.989
  H      625.930     349.954    -828.906
  H      627.264     348.830    -829.000

 6  7  8  9  10  11  12  13  14  15  26  29  33  34 0
 6-311+G(2d,p)
 ****
 36  38  39  40  41 0
 6-311+G(2d,p)
 ****
 1  2  3  4  5  16  17  18  19  20  21  22  23  24  25 0
 3-21G
 ****
 27  28  30  31  32  35  37  42  43  44  45  46  47 0
 3-21G
 ****
 48  49 0
 3-21G
 ****


