%nproc=1
%NoSave
%Mem=1900MB
#P OB98/GEN NMR

erre ene a

0 1
  C      517.905     129.985    -307.937
  O      518.060     128.644    -308.399
  P      519.527     128.153    -308.829
  C      519.612     125.973    -307.414
  O      519.576     126.560    -308.713
  C      518.998     124.573    -307.442
  O      517.557     124.618    -307.587
  C      519.501     123.707    -308.595
  O      520.751     123.098    -308.288
  C      518.415     122.650    -308.667
  O      518.627     121.655    -307.647
  C      517.152     123.466    -308.369
  N      512.648     123.834    -310.654
  C      512.981     123.321    -309.414
  N      511.954     122.853    -308.665
  N      514.196     123.283    -308.936
  C      515.114     123.808    -309.792
  C      514.912     124.342    -311.048
  C      513.559     124.357    -311.560
  O      513.213     124.789    -312.662
  N      516.088     124.769    -311.605
  C      517.004     124.505    -310.685
  N      516.467     123.914    -309.569
  O      520.432     128.634    -307.602
  O      520.006     128.726    -310.128
  H      519.533     121.313    -307.772
  H      521.347     128.802    -307.904
  H      511.696     123.833    -310.970
  H      518.058     124.748    -310.772
  H      516.421     122.904    -307.767
  H      518.410     122.122    -309.623
  H      510.989     122.894    -308.941
  H      519.543     124.271    -309.536
  H      512.172     122.505    -307.734
  H      519.237     124.073    -306.490
  H      519.070     126.598    -306.701
  H      520.649     125.952    -307.063
  P      521.880     123.068    -309.432
  C      523.755     124.344    -308.168
  O      523.287     123.106    -308.660
  O      521.749     124.525    -310.085
  O      521.714     121.991    -310.446
  H      521.988     124.489    -311.030
  H      524.632     124.160    -307.533
  H      522.988     124.840    -307.555
  H      524.048     124.999    -308.995
  H      516.879     130.161    -307.690
  H      518.209     130.664    -308.706
  H      518.511     130.135    -307.068

 3  4  5  6  7  8  9  10  11  12  23  26  30  31 0
 6-311+G(2d,p)
 ****
 33  35  36  37  38 0
 6-311+G(2d,p)
 ****
 1  2  13  14  15  16  17  18  19  20  21  22  24  25 0
 3-21G
 ****
 27  28  29  32  34  39  40  41  42  43  44  45  46  47  48  49 0
 3-21G
 ****


