%nproc=1
%NoSave
%Mem=1900MB
#P OB98/GEN NMR

erre ene a

0 1
  C       68.483      46.567     179.980
  O       69.181      46.844     181.180
  H       68.331      45.489     179.872
  H       67.507      47.059     180.020
  H       69.039      46.955     179.120
  P       70.660      46.232     181.307
  C       69.956      44.758     183.325
  O       70.490      44.799     182.010
  C       70.906      44.011     184.257
  O       70.921      42.603     183.927
  C       72.358      44.465     184.185
  O       72.582      45.649     184.935
  C       73.061      43.268     184.812
  O       72.946      43.332     186.245
  C       72.236      42.092     184.268
  N       75.981      39.053     182.550
  C       75.618      39.421     183.801
  N       74.597      40.218     184.178
  C       73.900      40.635     183.108
  C       74.132      40.325     181.776
  C       75.236      39.499     181.507
  N       75.637      39.183     180.215
  N       73.213      40.956     180.960
  C       72.451      41.644     181.784
  N       72.821      41.477     183.092
  O       71.325      47.142     182.448
  O       71.465      46.247     180.048
  H       73.261      42.477     186.591
  H       71.853      47.848     182.028
  H       76.234      39.025     184.605
  H       71.628      42.278     181.481
  H       72.090      41.305     185.020
  H       74.130      43.225     184.575
  H       72.697      44.576     183.148
  H       70.518      44.105     185.280
  H       68.987      44.245     183.308
  H       76.637      39.011     180.136
  H       75.212      39.753     179.494
  H       69.811      45.785     183.677
  P       73.712      46.665     184.416
  C       75.552      45.853     186.045
  O       75.124      45.951     184.692
  O       73.659      47.839     185.500
  O       73.511      47.193     183.035
  H       73.505      48.695     185.052
  H       76.501      45.360     186.084
  H       74.835      45.292     186.606
  H       75.643      46.834     186.462

 6  7  8  9  10  11  12  13  14  15  25  28  32  33  34  35 0
 6-311+G(2d,p)
 ****
 36  39  40 0
 6-311+G(2d,p)
 ****
 1  2  3  4  5  16  17  18  19  20  21  22  23  24 0
 3-21G
 ****
 26  27  29  30  31  37  38  41  42  43  44  45  46  47  48 0
 3-21G
 ****


