%nproc=1
%NoSave
%Mem=1900MB
#P OB98/GEN NMR

erre ene a

0 1
  C     -901.020    -889.880    -611.232
  O     -900.725    -891.220    -610.915
  H     -900.579    -889.240    -610.462
  H     -902.108    -889.720    -611.239
  H     -900.595    -889.610    -612.203
  P     -901.135    -892.330    -612.016
  C     -899.195    -894.070    -611.779
  O     -900.536    -893.720    -611.487
  C     -898.946    -895.560    -611.518
  O     -898.625    -895.740    -610.133
  C     -900.169    -896.440    -611.860
  O     -899.699    -897.680    -612.366
  C     -900.816    -896.670    -610.488
  O     -901.605    -897.840    -610.466
  C     -899.578    -896.720    -609.573
  N     -899.901    -896.430    -608.187
  C     -899.772    -897.490    -607.260
  O     -899.427    -898.600    -607.655
  N     -900.098    -897.270    -605.959
  C     -900.550    -896.100    -605.593
  N     -900.876    -895.970    -604.279
  C     -900.746    -894.970    -606.526
  C     -900.382    -895.200    -607.791
  O     -900.197    -891.930    -613.239
  O     -902.599    -892.360    -612.337
  H     -901.032    -898.620    -610.737
  H     -899.272    -891.740    -612.981
  H     -901.146    -894.040    -606.172
  H     -900.467    -894.420    -608.536
  H     -899.085    -897.700    -609.626
  H     -901.440    -895.830    -610.217
  H     -900.851    -895.970    -612.562
  H     -898.072    -895.880    -612.096
  H     -900.759    -896.780    -603.676
  H     -898.490    -893.490    -611.177
  H     -901.301    -895.130    -603.895
  H     -898.997    -893.830    -612.825
  P     -900.626    -898.520    -613.378
  C     -898.880    -898.330    -615.292
  O     -899.718    -899.190    -614.525
  O     -901.836    -897.830    -613.878
  O     -901.028    -899.800    -612.481
  H     -901.973    -900.000    -612.659
  H     -898.339    -898.908    -616.011
  H     -898.191    -897.832    -614.643
  H     -899.482    -897.604    -615.798

 6  7  8  9  10  11  12  13  14  15  16  26  30  31  32  33  35 0
 6-311+G(2d,p)
 ****
 37  38 0
 6-311+G(2d,p)
 ****
 1  2  3  4  5  17  18  19  20  21  22  23  24  25 0
 3-21G
 ****
 27  28  29  34  36  39  40  41  42  43  44  45  46 0
 3-21G
 ****


