%nproc=1
%NoSave
%Mem=1900MB
#P OB98/GEN NMR

erre ene a

0 1
  C     -519.733    -432.331     660.802
  O     -520.314    -433.077     661.839
  H     -520.519    -431.982     660.133
  H     -519.045    -432.949     660.223
  H     -519.203    -431.458     661.205
  P     -519.355    -433.713     662.964
  C     -519.366    -431.374     664.099
  O     -519.589    -432.779     664.262
  C     -520.086    -430.601     665.193
  O     -521.522    -430.793     665.119
  C     -519.726    -431.009     666.626
  O     -518.445    -430.565     667.034
  C     -520.847    -430.331     667.386
  O     -520.592    -428.914     667.475
  C     -522.059    -430.617     666.455
  N     -522.816    -431.821     666.874
  C     -523.629    -431.677     667.999
  O     -523.691    -430.613     668.604
  N     -524.333    -432.784     668.439
  C     -524.195    -433.925     667.828
  N     -524.924    -434.966     668.308
  C     -523.340    -434.108     666.641
  C     -522.681    -433.033     666.222
  O     -517.925    -433.916     662.566
  O     -520.098    -435.059     663.417
  H     -521.430    -428.484     667.707
  H     -519.535    -435.495     664.103
  H     -523.241    -435.086     666.189
  H     -522.020    -433.092     665.364
  H     -522.743    -429.775     666.438
  H     -520.968    -430.700     668.403
  H     -519.835    -432.097     666.753
  H     -519.904    -429.528     665.025
  H     -525.504    -434.812     669.106
  H     -519.714    -431.079     663.102
  H     -524.818    -435.924     667.932
  H     -518.288    -431.165     664.175
  P     -517.755    -431.377     668.239
  C     -516.480    -433.078     666.726
  O     -516.405    -432.014     667.656
  O     -518.716    -432.649     668.435
  O     -517.575    -430.606     669.518
  H     -519.349    -432.501     669.185
  H     -515.492    -433.377     666.446
  H     -517.015    -432.755     665.857
  H     -516.990    -433.906     667.172

 6  7  8  9  10  11  12  13  14  15  16  26  30  31  32  33  35 0
 6-311+G(2d,p)
 ****
 37  38 0
 6-311+G(2d,p)
 ****
 1  2  3  4  5  17  18  19  20  21  22  23  24  25 0
 3-21G
 ****
 27  28  29  34  36  39  40  41  42  43  44  45  46 0
 3-21G
 ****


