%nproc=1
%NoSave
%Mem=1900MB
#P OB98/GEN NMR

erre ene a

0 1
  C     -204.884    -493.338    -315.487
  O     -206.179    -492.792    -315.277
  P     -206.442    -491.740    -314.091
  C     -208.568    -493.097    -313.610
  O     -208.028    -491.805    -313.819
  C     -209.999    -492.977    -313.053
  O     -209.944    -492.185    -311.843
  C     -211.014    -492.283    -313.962
  O     -211.622    -493.127    -314.927
  C     -212.062    -491.865    -312.926
  O     -212.898    -492.996    -312.599
  C     -211.202    -491.453    -311.740
  N     -211.906    -487.138    -309.075
  C     -212.262    -488.422    -308.836
  N     -212.053    -489.508    -309.605
  C     -211.349    -489.190    -310.712
  C     -210.909    -487.930    -311.092
  C     -211.214    -486.863    -310.212
  N     -210.828    -485.566    -310.442
  N     -210.248    -487.993    -312.293
  C     -210.284    -489.275    -312.631
  N     -210.931    -490.029    -311.693
  O     -205.877    -490.380    -314.328
  O     -205.836    -492.449    -312.795
  H     -213.397    -492.774    -311.786
  H     -205.701    -491.782    -312.084
  H     -212.797    -488.593    -307.901
  H     -209.852    -489.687    -313.536
  H     -211.659    -491.745    -310.776
  H     -212.737    -491.086    -313.307
  H     -210.583    -491.380    -314.423
  H     -210.341    -493.991    -312.787
  H     -207.950    -493.622    -312.887
  H     -210.965    -484.898    -309.711
  H     -210.175    -485.394    -311.209
  H     -208.569    -493.671    -314.549
  P     -211.253    -492.843    -316.470
  C     -213.782    -492.702    -317.151
  O     -212.529    -493.335    -317.322
  O     -209.941    -493.397    -316.916
  O     -211.343    -491.248    -316.571
  H     -212.225    -490.871    -316.458
  H     -214.467    -493.069    -317.926
  H     -213.689    -491.611    -317.265
  H     -214.196    -492.931    -316.178
  H     -204.912    -494.013    -316.317
  H     -204.572    -493.865    -314.609
  H     -204.193    -492.548    -315.693

 3  4  5  6  7  8  9  10  11  12  22  25  29  30  31  32 0
 6-311+G(2d,p)
 ****
 33  36  37 0
 6-311+G(2d,p)
 ****
 1  2  13  14  15  16  17  18  19  20  21  23  24  26 0
 3-21G
 ****
 27  28  34  35  38  39  40  41  42  43  44  45  46  47  48 0
 3-21G
 ****


