%nproc=1
%NoSave
%Mem=1900MB
#P OB98/GEN NMR

erre ene a

0 1
  C      654.987    -945.091     473.883
  O      655.799    -943.923     473.834
  P      655.544    -942.784     474.952
  C      657.517    -943.754     476.361
  O      656.154    -943.386     476.327
  C      658.343    -942.669     477.060
  O      657.852    -942.446     478.408
  C      659.816    -942.986     477.182
  O      660.511    -942.690     475.988
  C      660.230    -942.103     478.345
  O      660.451    -940.737     477.911
  C      658.988    -942.178     479.252
  N      660.429    -943.103     484.020
  C      660.633    -941.966     483.237
  N      661.288    -940.939     483.800
  N      660.237    -941.888     481.974
  C      659.629    -943.015     481.549
  C      659.377    -944.197     482.226
  C      659.758    -944.252     483.606
  O      659.518    -945.163     484.383
  N      658.709    -945.099     481.436
  C      658.585    -944.479     480.286
  N      659.083    -943.192     480.287
  O      653.951    -942.884     475.179
  O      655.998    -941.422     474.594
  H      659.606    -940.339     477.662
  H      653.503    -942.182     474.675
  H      660.728    -943.117     484.980
  H      658.105    -944.889     479.396
  H      658.787    -941.225     479.765
  H      661.169    -942.422     478.824
  H      661.639    -940.958     484.752
  H      659.955    -944.040     477.477
  H      661.429    -940.124     483.231
  H      658.195    -941.731     476.505
  H      657.890    -943.891     475.332
  H      657.610    -944.700     476.890
  P      662.042    -943.170     475.858
  C      661.698    -944.732     473.794
  O      662.049    -944.622     475.168
  O      662.443    -943.479     477.378
  O      662.955    -942.177     475.221
  H      663.396    -943.219     477.513
  H      662.222    -945.596     473.379
  H      661.974    -943.817     473.242
  H      660.625    -944.892     473.703
  H      655.265    -945.752     473.089
  H      653.959    -944.815     473.774
  H      655.127    -945.583     474.823

 3  4  5  6  7  8  9  10  11  12  23  26  30  31 0
 6-311+G(2d,p)
 ****
 33  35  36  37  38 0
 6-311+G(2d,p)
 ****
 1  2  13  14  15  16  17  18  19  20  21  22  24  25 0
 3-21G
 ****
 27  28  29  32  34  39  40  41  42  43  44  45  46  47  48  49 0
 3-21G
 ****


