%nproc=1
%NoSave
%Mem=1900MB
#P OB98/GEN NMR

erre ene a

0 1
  C     -250.664     467.791     106.973
  O     -251.738     468.643     106.655
  P     -253.184     468.534     107.321
  C     -252.449     469.850     109.458
  O     -253.022     468.670     108.910
  C     -252.949     470.092     110.890
  O     -252.317     471.288     111.408
  C     -254.472     470.337     110.925
  O     -255.140     469.694     112.000
  C     -254.567     471.855     110.851
  O     -255.808     472.368     111.306
  C     -253.337     472.284     111.637
  N     -254.335     477.219     110.935
  C     -255.119     476.251     111.525
  N     -256.393     476.606     111.800
  N     -254.697     475.042     111.791
  C     -253.437     474.801     111.362
  C     -252.566     475.682     110.761
  C     -253.029     477.024     110.504
  O     -252.407     477.881     109.877
  N     -251.393     475.068     110.395
  C     -251.567     473.809     110.742
  N     -252.807     473.592     111.298
  O     -254.086     467.471     106.796
  O     -253.828     469.963     106.929
  H     -256.494     472.109     110.657
  H     -254.789     469.819     106.791
  H     -254.745     478.112     110.681
  H     -250.851     473.012     110.588
  H     -253.539     472.313     112.712
  H     -254.476     472.139     109.796
  H     -256.790     477.478     111.473
  H     -254.947     469.908     110.041
  H     -257.048     475.855     111.997
  H     -252.647     469.254     111.526
  H     -252.758     470.675     108.809
  H     -251.359     469.795     109.434
  P     -256.675     469.271     112.116
  C     -256.288     467.090     110.826
  O     -257.030     468.290     110.899
  O     -257.495     470.598     111.755
  O     -257.082     468.763     113.461
  H     -258.276     470.665     112.339
  H     -256.423     466.655     109.824
  H     -256.663     466.382     111.572
  H     -255.224     467.273     110.992
  H     -249.807     468.066     106.395
  H     -250.934     466.779     106.752
  H     -250.435     467.879     108.014

 3  4  5  6  7  8  9  10  11  12  23  26  30  31 0
 6-311+G(2d,p)
 ****
 33  35  36  37  38 0
 6-311+G(2d,p)
 ****
 1  2  13  14  15  16  17  18  19  20  21  22  24  25 0
 3-21G
 ****
 27  28  29  32  34  39  40  41  42  43  44  45  46  47  48  49 0
 3-21G
 ****


