%nproc=1
%NoSave
%Mem=1900MB
#P OB98/GEN NMR

erre ene a

0 1
  C     -652.208     -85.432     844.061
  O     -652.866     -85.578     845.342
  P     -652.283     -84.894     846.674
  C     -654.799     -84.561     847.167
  O     -653.500     -84.731     847.731
  C     -655.719     -83.757     848.105
  O     -655.773     -84.412     849.400
  C     -655.282     -82.336     848.372
  O     -655.628     -81.495     847.275
  C     -656.016     -82.007     849.675
  O     -657.386     -81.671     849.414
  C     -655.925     -83.363     850.408
  N     -654.000     -81.410     854.730
  C     -655.132     -81.158     854.051
  N     -655.574     -81.716     852.902
  C     -654.711     -82.651     852.468
  C     -653.510     -83.015     853.056
  C     -653.129     -82.354     854.237
  N     -651.973     -82.591     854.913
  N     -652.875     -83.988     852.298
  C     -653.699     -84.236     851.292
  N     -654.828     -83.454     851.363
  O     -651.497     -83.650     846.439
  O     -651.376     -86.024     847.346
  H     -657.405     -80.779     849.049
  H     -650.660     -85.594     847.870
  H     -655.776     -80.397     854.487
  H     -653.528     -84.944     850.512
  H     -656.847     -83.585     850.959
  H     -655.564     -81.180     850.216
  H     -654.196     -82.297     848.544
  H     -656.732     -83.793     847.682
  H     -655.242     -85.536     846.970
  H     -651.765     -82.058     855.740
  H     -651.316     -83.264     854.510
  H     -654.701     -84.031     846.222
  P     -654.508     -80.937     846.273
  C     -656.010     -80.970     844.196
  O     -655.259     -80.171     845.083
  O     -653.488     -81.953     845.826
  O     -653.806     -79.745     847.096
  H     -652.868     -79.685     846.837
  H     -655.326     -81.418     843.457
  H     -656.727     -80.313     843.661
  H     -656.563     -81.747     844.718
  H     -652.760     -85.964     843.314
  H     -651.216     -85.829     844.122
  H     -652.162     -84.395     843.800

 3  4  5  6  7  8  9  10  11  12  22  25  29  30  31  32 0
 6-311+G(2d,p)
 ****
 33  36  37 0
 6-311+G(2d,p)
 ****
 1  2  13  14  15  16  17  18  19  20  21  23  24  26 0
 3-21G
 ****
 27  28  34  35  38  39  40  41  42  43  44  45  46  47  48 0
 3-21G
 ****


