%nproc=1
%NoSave
%Mem=1900MB
#P OB98/GEN NMR

erre ene a

0 1
  C     1019.418    -539.635     184.599
  O     1019.608    -540.741     185.461
  P     1018.303    -541.361     186.167
  C     1016.773    -540.430     188.106
  O     1018.038    -540.441     187.458
  C     1016.922    -540.725     189.588
  O     1018.077    -539.993     190.124
  C     1015.747    -540.311     190.456
  O     1014.670    -541.210     190.350
  C     1016.392    -540.236     191.836
  O     1016.501    -541.568     192.399
  C     1017.802    -539.700     191.495
  N     1017.936    -538.257     191.770
  C     1017.738    -537.859     193.082
  O     1017.451    -538.633     193.988
  N     1017.855    -536.515     193.321
  C     1018.077    -535.548     192.369
  O     1018.127    -534.349     192.634
  C     1018.256    -536.023     190.997
  C     1018.176    -537.346     190.768
  O     1018.905    -542.724     186.756
  O     1017.151    -541.536     185.244
  H     1019.876    -542.648     186.933
  H     1015.587    -541.858     192.588
  H     1017.740    -536.203     194.271
  H     1018.421    -535.297     190.227
  H     1018.288    -537.724     189.751
  H     1018.554    -540.234     192.092
  H     1015.826    -539.623     192.542
  H     1015.418    -539.305     190.162
  H     1017.135    -541.799     189.709
  H     1016.138    -541.194     187.637
  H     1016.298    -539.452     187.947
  P     1013.212    -540.659     190.777
  C     1012.279    -539.425     192.896
  O     1013.396    -540.003     192.220
  O     1012.415    -542.018     191.047
  O     1012.578    -539.772     189.744
  H     1012.959    -542.674     191.529
  H     1012.502    -539.358     193.959
  H     1011.379    -540.021     192.750
  H     1012.112    -538.416     192.495
  H     1020.362    -539.327     184.201
  H     1018.981    -538.827     185.147
  H     1018.768    -539.915     183.797

 3  4  5  6  7  8  9  10  11  12  13  24  28  29  30  31  32 0
 6-311+G(2d,p)
 ****
 33  34 0
 6-311+G(2d,p)
 ****
 1  2  14  15  16  17  18  19  20  21  22  23  25  26  27 0
 3-21G
 ****
 35  36  37  38  39  40  41  42  43  44  45 0
 3-21G
 ****


