%nproc=1
%NoSave
%Mem=1900MB
#P OB98/GEN NMR

erre ene a

0 1
  C     -195.668     138.679    -679.521
  O     -194.597     137.845    -679.904
  H     -196.567     138.067    -679.400
  H     -195.861     139.428    -680.292
  H     -195.458     139.174    -678.567
  P     -193.117     138.457    -679.949
  C     -192.709     137.613    -682.350
  O     -192.782     138.743    -681.490
  C     -191.303     137.483    -682.924
  O     -191.091     136.147    -683.430
  C     -191.020     138.420    -684.091
  O     -190.800     139.743    -683.642
  C     -189.801     137.744    -684.710
  O     -188.608     138.077    -683.984
  C     -190.159     136.251    -684.531
  N     -190.708     135.639    -685.743
  C     -190.369     134.309    -685.972
  O     -189.621     133.671    -685.243
  N     -190.912     133.743    -687.100
  C     -191.672     134.388    -688.036
  O     -192.087     133.847    -689.055
  C     -191.964     135.798    -687.754
  C     -191.482     136.353    -686.641
  O     -192.070     137.689    -679.208
  O     -193.301     139.932    -679.345
  H     -188.466     139.034    -684.101
  H     -193.019     139.942    -678.411
  H     -190.669     132.786    -687.293
  H     -192.560     136.346    -688.476
  H     -191.687     137.391    -686.420
  H     -189.265     135.676    -684.239
  H     -189.631     138.043    -685.743
  H     -191.843     138.384    -684.817
  H     -190.583     137.653    -682.109
  H     -193.424     137.748    -683.169
  H     -192.982     136.720    -681.783
  P     -191.002     140.987    -684.625
  C     -188.643     140.738    -685.587
  O     -190.030     140.774    -685.886
  O     -190.900     142.334    -683.981
  O     -192.463     140.758    -685.245
  H     -193.094     141.387    -684.848
  H     -188.087     140.593    -686.490
  H     -188.444     139.932    -684.912
  H     -188.352     141.662    -685.133

 6  7  8  9  10  11  12  13  14  15  16  26  31  32  33  34  35 0
 6-311+G(2d,p)
 ****
 36  37 0
 6-311+G(2d,p)
 ****
 1  2  3  4  5  17  18  19  20  21  22  23  24  25 0
 3-21G
 ****
 27  28  29  30  38  39  40  41  42  43  44  45 0
 3-21G
 ****


