%nproc=1
%NoSave
%Mem=1900MB
#P OB98/GEN NMR

erre ene a

0 1
  C       54.781      88.674    -189.270
  O       55.148      87.321    -189.441
  H       55.460      89.301    -189.856
  H       54.860      88.961    -188.217
  H       53.760      88.834    -189.623
  P       54.338      86.236    -188.581
  C       56.113      85.812    -186.727
  O       54.847      86.369    -187.066
  C       55.973      84.945    -185.482
  O       55.812      85.785    -184.312
  C       54.750      84.033    -185.493
  O       54.942      82.870    -186.280
  C       54.618      83.713    -184.014
  O       55.464      82.623    -183.627
  C       55.057      85.029    -183.344
  N       53.917      85.784    -182.825
  C       53.279      85.223    -181.721
  O       53.633      84.170    -181.193
  N       52.185      85.905    -181.260
  C       51.654      87.032    -181.811
  O       50.636      87.563    -181.382
  C       52.359      87.567    -182.991
  C       53.443      86.925    -183.439
  O       54.961      84.844    -189.072
  O       52.857      86.277    -188.750
  H       54.321      84.383    -189.645
  H       55.262      82.443    -182.689
  H       51.711      85.519    -180.456
  H       51.961      88.460    -183.452
  H       53.974      87.292    -184.308
  H       55.739      84.821    -182.508
  H       53.596      83.433    -183.766
  H       53.864      84.592    -185.819
  H       56.890      84.355    -185.360
  H       56.825      86.619    -186.519
  H       56.483      85.228    -187.573
  P       53.635      82.150    -186.876
  C       53.796      80.471    -184.857
  O       52.996      81.328    -185.658
  O       54.314      81.037    -187.809
  O       52.713      83.093    -187.578
  H       55.198      80.786    -187.489
  H       53.188      80.017    -184.103
  H       54.574      81.040    -184.393
  H       54.229      79.710    -185.472

 6  7  8  9  10  11  12  13  14  15  16  27  31  32  33  34  35 0
 6-311+G(2d,p)
 ****
 36  37 0
 6-311+G(2d,p)
 ****
 1  2  3  4  5  17  18  19  20  21  22  23  24  25 0
 3-21G
 ****
 26  28  29  30  38  39  40  41  42  43  44  45 0
 3-21G
 ****


