%nproc=1
%NoSave
%Mem=1900MB
#P OB98/GEN NMR

erre ene a

0 1
  C      326.202    -413.949    -136.614
  O      326.548    -413.362    -135.381
  H      325.301    -414.554    -136.468
  H      327.002    -414.606    -136.964
  H      325.992    -413.182    -137.363
  P      327.865    -412.448    -135.288
  C      326.674    -410.291    -134.570
  O      327.536    -411.345    -134.161
  C      325.665    -409.952    -133.474
  O      324.602    -410.943    -133.467
  C      326.271    -409.916    -132.062
  O      325.838    -408.740    -131.377
  C      325.680    -411.144    -131.388
  O      325.644    -411.039    -129.968
  C      324.318    -411.227    -132.085
  N      323.687    -412.528    -131.901
  C      322.762    -412.625    -130.858
  O      322.513    -411.642    -130.157
  N      322.181    -413.838    -130.598
  C      322.530    -414.878    -131.288
  N      321.939    -416.059    -130.960
  C      323.524    -414.829    -132.381
  C      324.053    -413.633    -132.635
  O      328.336    -411.899    -136.592
  O      328.956    -413.372    -134.566
  H      326.550    -410.828    -129.648
  H      329.854    -413.035    -134.785
  H      323.782    -415.725    -132.923
  H      324.793    -413.497    -133.419
  H      323.638    -410.452    -131.710
  H      326.284    -412.025    -131.645
  H      327.360    -409.945    -132.065
  H      325.189    -408.996    -133.724
  H      321.268    -416.048    -130.200
  H      326.155    -410.600    -135.487
  H      322.148    -416.935    -131.412
  H      327.283    -409.406    -134.781
  P      326.630    -408.368    -130.032
  C      327.790    -406.247    -130.973
  O      326.881    -406.784    -130.022
  O      328.085    -408.990    -130.277
  O      326.000    -408.923    -128.797
  H      328.221    -409.760    -129.694
  H      327.854    -405.187    -130.846
  H      327.444    -406.467    -131.961
  H      328.757    -406.683    -130.828

 6  7  8  9  10  11  12  13  14  15  16  26  30  31  32  33  35 0
 6-311+G(2d,p)
 ****
 37  38 0
 6-311+G(2d,p)
 ****
 1  2  3  4  5  17  18  19  20  21  22  23  24  25 0
 3-21G
 ****
 27  28  29  34  36  39  40  41  42  43  44  45  46 0
 3-21G
 ****


