%nproc=1
%NoSave
%Mem=1900MB
#P OB98/GEN NMR

erre ene a

0 1
  C       82.271    -155.802     209.247
  O       83.365    -155.310     210.030
  P       83.361    -155.381     211.634
  C       84.828    -157.417     212.188
  O       84.748    -155.994     212.177
  C       86.151    -157.944     212.765
  O       87.231    -157.810     211.798
  C       86.621    -157.247     214.051
  O       87.331    -158.235     214.800
  C       87.580    -156.195     213.508
  O       88.480    -155.689     214.484
  C       88.254    -156.987     212.389
  N       92.324    -154.078     211.262
  C       92.097    -154.962     212.261
  N       91.008    -155.727     212.472
  C       90.097    -155.544     211.499
  C       90.188    -154.688     210.408
  C       91.364    -153.915     210.318
  N       91.579    -152.980     209.328
  N       89.042    -154.747     209.639
  C       88.269    -155.622     210.255
  N       88.865    -156.135     211.383
  O       82.142    -156.027     212.216
  O       83.432    -153.846     212.099
  H       88.881    -156.446     214.954
  H       82.778    -153.694     212.808
  H       92.902    -155.064     212.988
  H       87.272    -155.901     209.949
  H       89.035    -157.652     212.785
  H       87.002    -155.348     213.116
  H       85.809    -156.819     214.639
  H       86.027    -159.022     212.943
  H       84.708    -157.781     211.156
  H       92.409    -152.414     209.393
  H       90.827    -152.756     208.688
  H       83.992    -157.811     212.778
  P       86.626    -159.071     215.974
  C       84.890    -160.677     214.989
  O       86.248    -160.503     215.355
  O       85.502    -158.363     216.660
  O       87.816    -159.411     216.993
  H       87.437    -159.644     217.869
  H       84.281    -160.837     215.886
  H       84.806    -161.548     214.335
  H       84.514    -159.799     214.449
  H       82.482    -155.656     208.208
  H       81.379    -155.272     209.508
  H       82.135    -156.846     209.440

 3  4  5  6  7  8  9  10  11  12  22  25  29  30  31  32 0
 6-311+G(2d,p)
 ****
 33  36  37 0
 6-311+G(2d,p)
 ****
 1  2  13  14  15  16  17  18  19  20  21  23  24  26 0
 3-21G
 ****
 27  28  34  35  38  39  40  41  42  43  44  45  46  47  48 0
 3-21G
 ****


