%nproc=1
%NoSave
%Mem=1900MB
#P OB98/GEN NMR

erre ene a

0 1
  C      -21.257      82.614     -71.640
  O      -21.891      82.166     -72.821
  H      -20.351      82.022     -71.484
  H      -21.922      82.472     -70.783
  H      -20.981      83.668     -71.730
  P      -23.148      83.028     -73.335
  C      -22.390      84.864     -75.051
  O      -22.755      83.516     -74.811
  C      -21.855      85.029     -76.474
  O      -20.809      84.051     -76.695
  C      -22.915      84.832     -77.559
  O      -22.655      85.752     -78.621
  C      -22.678      83.410     -78.035
  O      -23.164      83.204     -79.360
  C      -21.158      83.276     -77.861
  N      -20.735      81.884     -77.720
  C      -20.821      81.082     -78.863
  O      -21.255      81.550     -79.917
  N      -20.454      79.764     -78.778
  C      -20.101      79.267     -77.633
  N      -19.770      77.947     -77.609
  C      -20.048      80.061     -76.390
  C      -20.365      81.349     -76.507
  O      -23.017      84.352     -72.446
  O      -24.459      82.327     -73.217
  H      -22.736      83.866     -79.947
  H      -22.103      84.666     -72.348
  H      -19.762      79.598     -75.457
  H      -20.344      82.008     -75.646
  H      -20.632      83.712     -78.720
  H      -23.197      82.704     -77.374
  H      -23.934      84.968     -77.198
  H      -21.384      86.015     -76.554
  H      -19.839      77.433     -78.479
  H      -21.625      85.183     -74.336
  H      -19.532      77.445     -76.767
  H      -23.277      85.487     -74.904
  P      -23.868      86.594     -79.243
  C      -24.112      88.371     -77.391
  O      -23.758      88.115     -78.741
  O      -25.221      85.980     -79.107
  O      -23.457      86.717     -80.792
  H      -24.271      86.631     -81.326
  H      -23.996      89.414     -77.184
  H      -23.476      87.806     -76.742
  H      -25.131      88.086     -77.229

 6  7  8  9  10  11  12  13  14  15  16  26  30  31  32  33  35 0
 6-311+G(2d,p)
 ****
 37  38 0
 6-311+G(2d,p)
 ****
 1  2  3  4  5  17  18  19  20  21  22  23  24  25 0
 3-21G
 ****
 27  28  29  34  36  39  40  41  42  43  44  45  46 0
 3-21G
 ****


