%nproc=1
%NoSave
%Mem=1900MB
#P OB98/GEN NMR

erre ene a

0 1
  C      -78.279     -62.895    -172.569
  O      -79.421     -63.646    -172.205
  H      -78.075     -62.165    -171.782
  H      -78.463     -62.364    -173.506
  H      -77.412     -63.552    -172.675
  P      -79.877     -64.791    -173.231
  C      -80.908     -67.156    -172.851
  O      -80.756     -65.826    -172.377
  C      -82.039     -67.865    -172.099
  O      -81.776     -67.775    -170.666
  C      -83.427     -67.247    -172.334
  O      -84.405     -68.290    -172.188
  C      -83.536     -66.279    -171.167
  O      -84.862     -65.836    -170.999
  C      -82.929     -67.144    -170.066
  N      -84.152     -66.000    -165.236
  C      -84.716     -66.838    -166.131
  N      -84.327     -67.100    -167.395
  C      -83.218     -66.406    -167.705
  C      -82.525     -65.522    -166.894
  C      -83.039     -65.321    -165.602
  N      -82.471     -64.462    -164.690
  N      -81.434     -64.997    -167.565
  C      -81.471     -65.558    -168.757
  N      -82.532     -66.409    -168.889
  O      -78.521     -65.589    -173.520
  O      -80.521     -64.308    -174.487
  H      -84.934     -65.234    -170.229
  H      -78.105     -65.252    -174.335
  H      -85.601     -67.369    -165.787
  H      -80.764     -65.378    -169.558
  H      -83.614     -67.938    -169.748
  H      -82.925     -65.387    -171.344
  H      -83.534     -66.782    -173.318
  H      -82.026     -68.932    -172.355
  H      -79.965     -67.690    -172.694
  H      -81.136     -67.137    -173.921
  H      -82.910     -64.363    -163.788
  H      -81.651     -63.936    -164.954
  P      -85.400     -68.608    -173.410
  C      -85.689     -70.756    -174.874
  O      -85.514     -70.198    -173.580
  O      -84.507     -68.202    -174.680
  O      -86.689     -67.854    -173.408
  H      -85.089     -67.927    -175.412
  H      -85.745     -71.822    -174.798
  H      -84.860     -70.485    -175.494
  H      -86.594     -70.381    -175.305

 6  7  8  9  10  11  12  13  14  15  25  28  32  33  34  35 0
 6-311+G(2d,p)
 ****
 36  37  40 0
 6-311+G(2d,p)
 ****
 1  2  3  4  5  16  17  18  19  20  21  22  23  24 0
 3-21G
 ****
 26  27  29  30  31  38  39 41  42  43  44  45  46  47  48 0
 3-21G
 ****


