%nproc=1
%NoSave
%Mem=1900MB
#P OB98/GEN NMR

erre ene a

0 1
  C       91.397    -102.935       4.142
  O       91.250    -101.705       4.822
  H       92.449    -103.066       3.879
  H       90.806    -102.929       3.223
  H       91.089    -103.770       4.776
  P       89.839    -101.359       5.499
  C       90.773    -101.955       7.827
  O       89.760    -102.200       6.861
  C       90.173    -101.259       9.045
  O       89.271    -102.150       9.736
  C       91.203    -100.826      10.083
  O       91.894     -99.667       9.657
  C       90.311    -100.631      11.301
  O       89.640     -99.363      11.245
  C       89.307    -101.796      11.136
  N       89.633    -102.959      11.961
  C       89.036    -103.015      13.215
  O       88.299    -102.130      13.650
  N       89.329    -104.122      13.969
  C       90.207    -105.110      13.628
  O       90.475    -106.056      14.364
  C       90.835    -104.981      12.306
  C       90.524    -103.929      11.546
  O       88.645    -101.486       4.612
  O       90.030     -99.855       6.017
  H       90.332     -98.678      11.325
  H       89.609     -99.237       5.392
  H       88.915    -104.174      14.885
  H       91.541    -105.743      12.006
  H       90.983    -103.814      10.570
  H       88.295    -101.464      11.401
  H       90.869    -100.651      12.237
  H       91.902    -101.644      10.287
  H       89.591    -100.396       8.693
  H       91.539    -101.313       7.378
  H       91.229    -102.909       8.111
  P       93.368     -99.351      10.190
  C       94.416    -100.538       8.175
  O       94.349    -100.476       9.595
  O       93.482     -99.144      11.663
  O       93.797     -98.036       9.386
  H       93.771     -97.261       9.982
  H       95.092    -101.314       7.883
  H       94.763     -99.601       7.793
  H       93.443    -100.745       7.781

 6  7  8  9  10  11  12  13  14  15  16  26  31  32  33  34  35 0
 6-311+G(2d,p)
 ****
 36  37 0
 6-311+G(2d,p)
 ****
 1  2  3  4  5  17  18  19  20  21  22  23  24  25 0
 3-21G
 ****
 27  28  29  30  38  39  40  41  42  43  44  45 0
 3-21G
 ****


