%nproc=1
%NoSave
%Mem=1900MB
#P OB98/GEN NMR

erre ene a

0 1
  C     -122.082     101.083     198.394
  O     -121.292     100.133     199.086
  P     -120.756      98.869     198.252
  C     -118.807      98.143     199.819
  O     -119.192      98.724     198.578
  C     -117.668      98.946     200.445
  O     -118.120     100.277     200.768
  C     -117.127      98.371     201.750
  O     -116.301      97.244     201.509
  C     -116.399      99.588     202.309
  O     -115.128      99.745     201.657
  C     -117.339     100.739     201.906
  N     -118.518     104.408     205.281
  C     -117.526     104.303     204.370
  N     -117.263     103.286     203.523
  C     -118.164     102.300     203.675
  C     -119.214     102.251     204.575
  C     -119.385     103.371     205.402
  N     -120.396     103.468     206.339
  N     -119.909     101.067     204.456
  C     -119.297     100.414     203.494
  N     -118.242     101.121     202.978
  O     -120.769      99.399     196.745
  O     -121.560      97.619     198.413
  H     -114.689      98.873     201.664
  H     -120.987      98.679     196.121
  H     -116.849     105.154     204.314
  H     -119.576      99.434     203.129
  H     -116.798     101.639     201.594
  H     -116.212      99.522     203.387
  H     -117.952      98.092     202.415
  H     -116.861      99.026     199.703
  H     -118.464      97.115     199.650
  H     -120.355     104.236     206.995
  H     -120.950     102.644     206.528
  H     -119.674      98.112     200.483
  P     -116.764      95.844     202.146
  C     -116.072      94.382     200.148
  O     -117.154      94.954     200.865
  O     -118.190      96.226     202.757
  O     -115.787      95.234     203.091
  H     -118.746      96.706     202.118
  H     -116.476      93.766     199.345
  H     -115.466      93.756     200.810
  H     -115.454      95.171     199.712
  H     -122.368     101.866     199.065
  H     -122.958     100.605     198.009
  H     -121.516     101.496     197.585

 3  4  5  6  7  8  9  10  11  12  22  25  29  30  31  32 0
 6-311+G(2d,p)
 ****
 33  36  37 0
 6-311+G(2d,p)
 ****
 1  2  13  14  15  16  17  18  19  20  21  23  24  26 0
 3-21G
 ****
 27  28  34  35  38  39  40  41  42  43  44  45  46  47  48 0
 3-21G
 ****


