%nproc=1
%NoSave
%Mem=1900MB
#P OB98/GEN NMR

erre ene a

0 1
  C     -152.599     137.890     105.129
  O     -153.996     137.995     105.284
  H     -152.370     136.903     104.716
  H     -152.099     137.980     106.096
  H     -152.228     138.652     104.441
  P     -154.617     139.334     105.917
  C     -155.054     138.359     108.250
  O     -154.266     139.263     107.487
  C     -154.742     138.482     109.742
  O     -155.321     139.711     110.259
  C     -155.291     137.322     110.586
  O     -154.278     136.851     111.477
  C     -156.415     137.963     111.385
  O     -156.705     137.269     112.595
  C     -155.878     139.388     111.545
  N     -156.919     140.324     111.952
  C     -157.335     140.242     113.284
  O     -156.824     139.420     114.045
  N     -158.354     141.054     113.708
  C     -158.941     141.843     112.865
  N     -159.964     142.601     113.344
  C     -158.553     141.940     111.443
  C     -157.541     141.163     111.059
  O     -156.057     139.562     105.601
  O     -153.667     140.511     105.397
  H     -155.887     137.235     113.138
  H     -154.162     141.363     105.438
  H     -159.078     142.611     110.779
  H     -157.186     141.165     110.033
  H     -155.069     139.422     112.287
  H     -157.330     137.975     110.777
  H     -155.653     136.488     109.986
  H     -153.656     138.581     109.862
  H     -160.201     142.497     114.324
  H     -154.855     137.339     107.901
  H     -160.509     143.231     112.778
  H     -156.110     138.597     108.086
  P     -153.353     135.658     110.932
  C     -154.859     133.726     111.788
  O     -154.293     134.386     110.665
  O     -152.492     135.243     112.216
  O     -152.479     136.057     109.790
  H     -151.563     135.509     112.090
  H     -155.457     132.904     111.454
  H     -155.471     134.413     112.335
  H     -154.076     133.364     112.421

 6  7  8  9  10  11  12  13  14  15  16  26  30  31  32  33  35 0
 6-311+G(2d,p)
 ****
 37  38 0
 6-311+G(2d,p)
 ****
 1  2  3  4  5  17  18  19  20  21  22  23  24  25 0
 3-21G
 ****
 27  28  29  34  36  39  40  41  42  43  44  45  46 0
 3-21G
 ****


