%nproc=1
%NoSave
%Mem=1900MB
#P OB98/GEN NMR

erre ene a

0 1
  C      314.518      19.161     -62.446
  O      313.532      20.085     -62.861
  H      314.063      18.168     -62.387
  H      314.895      19.430     -61.456
  H      315.343      19.125     -63.161
  P      313.972      21.593     -63.177
  C      311.822      22.317     -64.404
  O      312.631      22.468     -63.244
  C      310.353      22.532     -64.042
  O      309.813      21.341     -63.426
  C      310.124      23.656     -63.042
  O      310.229      24.924     -63.664
  C      308.733      23.308     -62.536
  O      307.723      23.762     -63.451
  C      308.791      21.766     -62.495
  N      309.045      21.240     -61.156
  C      307.924      20.940     -60.384
  O      306.769      21.124     -60.767
  N      308.179      20.441     -59.131
  C      309.408      20.326     -58.552
  O      309.575      19.956     -57.394
  C      310.553      20.683     -59.403
  C      310.322      21.115     -60.645
  O      314.899      21.767     -64.332
  O      314.648      22.082     -61.807
  H      307.828      24.732     -63.518
  H      315.617      22.102     -61.913
  H      307.383      20.230     -58.555
  H      311.544      20.591     -58.981
  H      311.153      21.388     -61.285
  H      307.843      21.342     -62.855
  H      308.518      23.766     -61.569
  H      310.833      23.573     -62.212
  H      309.793      22.713     -64.971
  H      311.956      21.304     -64.799
  H      312.146      23.042     -65.161
  P      310.608      26.211     -62.792
  C      312.130      27.534     -64.389
  O      310.834      27.434     -63.800
  O      311.697      26.007     -61.788
  O      309.235      26.593     -62.063
  H      309.355      26.544     -61.095
  H      312.162      28.383     -65.039
  H      312.336      26.647     -64.951
  H      312.864      27.647     -63.619

 6  7  8  9  10  11  12  13  14  15  16  26  31  32  33  34  35 0
 6-311+G(2d,p)
 ****
 36  37 0
 6-311+G(2d,p)
 ****
 1  2  3  4  5  17  18  19  20  21  22  23  24  25 0
 3-21G
 ****
 27  28  29  30  38  39  40  41  42  43  44  45 0
 3-21G
 ****


