%nproc=1
%NoSave
%Mem=1900MB
#P OB98/GEN NMR

erre ene a

0 1
  C      -35.891      -5.568      26.033
  O      -35.736      -4.230      25.600
  H      -36.124      -6.194      25.167
  H      -36.717      -5.633      26.747
  H      -34.969      -5.931      26.495
  P      -35.164      -3.195      26.680
  C      -37.380      -1.934      27.294
  O      -36.115      -1.898      26.648
  C      -38.407      -1.155      26.478
  O      -39.670      -1.094      27.169
  C      -38.049       0.304      26.254
  O      -37.002       0.470      25.324
  C      -39.385       0.850      25.767
  O      -39.563       0.640      24.362
  C      -40.399       0.010      26.581
  N      -41.087       0.811      27.575
  C      -42.355       0.345      27.948
  O      -42.802      -0.690      27.453
  N      -43.090       1.082      28.838
  C      -42.618       2.200      29.295
  N      -43.412       2.899      30.149
  C      -41.288       2.728      28.927
  C      -40.583       1.990      28.070
  O      -33.819      -2.679      25.985
  O      -34.968      -3.760      28.045
  H      -40.524       0.722      24.192
  H      -33.937      -2.403      25.061
  H      -40.934       3.658      29.346
  H      -39.597       2.303      27.746
  H      -41.152      -0.432      25.916
  H      -39.467       1.926      25.941
  H      -37.812       0.786      27.211
  H      -38.555      -1.681      25.525
  H      -44.337       2.529      30.330
  H      -37.307      -1.523      28.306
  H      -43.183       3.815      30.504
  H      -37.678      -2.983      27.383
  P      -35.672       1.277      25.702
  C      -36.449       2.987      23.938
  O      -35.351       2.247      24.461
  O      -34.519       0.440      26.141
  O      -36.182       2.316      26.810
  H      -36.879       2.924      26.511
  H      -36.115       3.592      23.121
  H      -36.854       3.614      24.705
  H      -37.204       2.311      23.595

 6  7  8  9  10  11  12  13  14  15  16  26  30  31  32  33  35 0
 6-311+G(2d,p)
 ****
 37  38 0
 6-311+G(2d,p)
 ****
 1  2  3  4  5  17  18  19  20  21  22  23  24  25 0
 3-21G
 ****
 27  28  29  34  36  39  40  41  42  43  44  45  46 0
 3-21G
 ****


