%nproc=1
%NoSave
%Mem=1900MB
#P OB98/GEN NMR

erre ene a

0 1
  C       41.308      31.274      -4.735
  O       40.927      30.882      -3.430
  P       39.378      30.801      -3.037
  C       39.275      32.871      -1.464
  O       39.226      31.467      -1.588
  C       38.953      33.313      -0.031
  O       39.090      34.753       0.032
  C       37.532      33.009       0.430
  O       37.492      33.075       1.857
  C       36.761      34.171      -0.155
  O       35.509      34.370       0.495
  C       37.769      35.341      -0.026
  N       37.670      36.269      -1.167
  C       36.851      37.382      -1.003
  O       36.287      37.648       0.057
  N       36.634      38.134      -2.125
  C       37.111      37.849      -3.370
  O       36.668      38.340      -4.401
  C       38.153      36.811      -3.428
  C       38.363      36.060      -2.344
  O       39.162      29.239      -2.765
  O       38.439      31.318      -4.073
  H       35.708      34.724       1.393
  H       38.799      28.805      -3.559
  H       35.928      38.855      -2.040
  H       38.666      36.655      -4.366
  H       39.089      35.252      -2.373
  H       37.599      35.915       0.893
  H       36.555      33.968      -1.213
  H       37.144      32.046       0.084
  H       39.685      32.874       0.658
  H       38.574      33.320      -2.173
  H       40.270      33.242      -1.735
  P       37.009      31.772       2.655
  C       34.764      31.855       1.411
  O       35.406      31.820       2.670
  O       37.657      31.538       3.978
  O       37.316      30.582       1.624
  H       37.343      29.733       2.100
  H       33.784      31.380       1.502
  H       35.345      31.327       0.650
  H       34.628      32.895       1.106
  H       42.375      31.270      -4.811
  H       40.940      32.259      -4.933
  H       40.897      30.590      -5.447

 3  4  5  6  7  8  9  10  11  12  13  23  28  29  30  31  32 0
 6-311+G(2d,p)
 ****
 33  34 0
 6-311+G(2d,p)
 ****
 1  2  14  15  16  17  18  19  20  21  22  24  25  26  27 0
 3-21G
 ****
 35  36  37  38  39  40  41  42  43  44  45 0
 3-21G
 ****


