%nproc=1
%NoSave
%Mem=1900MB
#P OB98/GEN NMR

erre ene a

0 1
  C     -106.624     -67.208     -71.802
  O     -106.409     -67.941     -72.996
  P     -105.955     -69.476     -72.856
  C     -108.081     -70.585     -73.853
  O     -107.292     -70.349     -72.696
  C     -107.545     -71.781     -74.643
  O     -107.622     -72.970     -73.807
  C     -108.310     -72.082     -75.941
  O     -107.349     -72.568     -76.886
  C     -109.256     -73.188     -75.503
  O     -109.818     -73.927     -76.574
  C     -108.344     -73.969     -74.562
  N     -110.060     -78.740     -73.908
  C     -109.298     -78.182     -74.875
  N     -108.872     -76.906     -74.977
  C     -109.307     -76.176     -73.936
  C     -110.105     -76.600     -72.886
  C     -110.487     -77.953     -72.894
  N     -111.274     -78.517     -71.909
  N     -110.369     -75.562     -72.018
  C     -109.742     -74.526     -72.535
  N     -109.071     -74.853     -73.681
  O     -105.306     -69.527     -71.396
  O     -105.004     -69.950     -73.910
  H     -109.135     -74.493     -76.984
  H     -104.518     -70.102     -71.380
  H     -108.986     -78.851     -75.673
  H     -109.754     -73.522     -72.132
  H     -107.607     -74.570     -75.110
  H     -110.091     -72.742     -74.950
  H     -108.814     -71.206     -76.362
  H     -106.484     -71.604     -74.862
  H     -108.049     -69.703     -74.501
  H     -111.654     -79.430     -72.108
  H     -111.752     -77.882     -71.281
  H     -109.124     -70.745     -73.556
  P     -107.683     -72.475     -78.452
  C     -105.875     -70.768     -79.102
  O     -107.251     -70.979     -78.852
  O     -109.280     -72.350     -78.414
  O     -107.166     -73.588     -79.297
  H     -109.570     -71.652     -77.801
  H     -105.738     -69.742     -79.455
  H     -105.519     -71.459     -79.872
  H     -105.303     -70.904     -78.181
  H     -106.920     -66.209     -72.045
  H     -105.719     -67.183     -71.231
  H     -107.395     -67.679     -71.229

 3  4  5  6  7  8  9  10  11  12  22  25  29  30  31  32 0
 6-311+G(2d,p)
 ****
 33  36  37 0
 6-311+G(2d,p)
 ****
 1  2  13  14  15  16  17  18  19  20  21  23  24  26 0
 3-21G
 ****
 27  28  34  35  38  39  40  41  42  43  44  45  46  47  48 0
 3-21G
 ****


