%nproc=1
%NoSave
%Mem=1900MB
#P OB98/GEN NMR

erre ene a

0 1
  C     -457.361     205.738    -562.450
  O     -456.826     206.390    -563.582
  H     -458.259     205.191    -562.750
  H     -457.641     206.473    -561.688
  H     -456.642     205.027    -562.033
  P     -455.410     207.131    -563.450
  C     -454.292     206.212    -565.584
  O     -454.320     206.191    -564.159
  C     -453.574     204.970    -566.103
  O     -454.220     203.775    -565.599
  C     -453.598     204.832    -567.622
  O     -452.687     205.729    -568.240
  C     -453.269     203.360    -567.785
  O     -451.861     203.130    -567.698
  C     -453.999     202.733    -566.577
  N     -455.264     202.102    -566.967
  C     -455.674     201.019    -566.197
  O     -455.037     200.592    -565.230
  N     -456.813     200.386    -566.619
  C     -457.488     200.643    -567.773
  O     -458.351     199.904    -568.232
  C     -457.049     201.835    -568.510
  C     -455.967     202.493    -568.088
  O     -455.053     207.597    -562.079
  O     -455.540     208.363    -564.473
  H     -455.717     209.177    -563.969
  H     -451.760     202.163    -567.529
  H     -457.093     199.573    -566.086
  H     -457.604     202.122    -569.398
  H     -455.604     203.368    -568.638
  H     -453.367     201.975    -566.095
  H     -453.612     202.978    -568.750
  H     -454.613     205.018    -567.995
  H     -452.543     204.983    -565.729
  H     -453.749     207.107    -565.907
  H     -455.316     206.252    -565.962
  P     -453.202     207.119    -568.830
  C     -451.835     209.010    -567.761
  O     -453.036     208.247    -567.705
  O     -454.552     207.074    -569.481
  O     -452.074     207.523    -569.898
  H     -452.510     207.753    -570.748
  H     -451.831     209.728    -566.968
  H     -451.778     209.517    -568.702
  H     -450.993     208.358    -567.656

 6  7  8  9  10  11  12  13  14  15  16  27  31  32  33  34  35 0
 6-311+G(2d,p)
 ****
 36  37 0
 6-311+G(2d,p)
 ****
 1  2  3  4  5  17  18  19  20  21  22  23  24  25 0
 3-21G
 ****
 26  28  29  30  38  39  40  41  42  43  44  45 0
 3-21G
 ****


