%nproc=1
%NoSave
%Mem=1900MB
#P OB98/GEN NMR

erre ene a

0 1
  C      488.297     -91.028    -985.989
  O      487.283     -92.019    -985.990
  P      487.710     -93.498    -985.539
  C      488.740     -93.955    -987.875
  O      487.799     -94.362    -986.885
  C      489.300     -95.183    -988.602
  O      489.859     -96.101    -987.654
  C      488.248     -95.973    -989.371
  O      487.934     -95.325    -990.589
  C      488.961     -97.314    -989.545
  O      489.793     -97.304    -990.718
  C      489.812     -97.411    -988.267
  N      489.305     -98.412    -987.336
  C      489.364     -99.744    -987.779
  O      489.811    -100.010    -988.894
  N      488.887    -100.731    -986.954
  C      488.391    -100.415    -985.798
  N      487.933    -101.435    -985.018
  C      488.292     -99.034    -985.302
  C      488.760     -98.092    -986.122
  O      486.380     -94.056    -984.830
  O      488.894     -93.562    -984.638
  H      490.292     -98.149    -990.698
  H      486.597     -94.738    -984.170
  H      487.864     -98.823    -984.335
  H      488.729     -97.034    -985.836
  H      490.849     -97.676    -988.506
  H      488.257     -98.132    -989.670
  H      487.350     -96.111    -988.761
  H      490.095     -94.842    -989.277
  H      488.009    -102.377    -985.390
  H      489.571     -93.428    -987.394
  H      487.549    -101.307    -984.093
  H      488.253     -93.272    -988.574
  P      486.462     -94.708    -990.740
  C      485.715     -97.158    -991.029
  O      485.631     -95.834    -991.531
  O      486.671     -93.596    -991.867
  O      485.823     -94.160    -989.508
  H      485.855     -93.072    -991.985
  H      484.982     -97.774    -991.554
  H      485.479     -97.171    -989.956
  H      486.714     -97.552    -991.202
  H      487.883     -90.094    -986.307
  H      489.080     -91.318    -986.658
  H      488.693     -90.924    -985.000

 3  4  5  6  7  8  9  10  11  12  13  21  23  27  28  29  30  32 0
 6-311+G(2d,p)
 ****
 34  35 0
 6-311+G(2d,p)
 ****
 1  2  14  15  16  17  18  19  20  22  24  25  26 0
 3-21G
 ****
 31  33  36  37  38  39  40  41  42  43  44  45  46 0
 3-21G
 ****


