%nproc=1
%NoSave
%Mem=1900MB
#P OB98/GEN NMR

erre ene a

0 1
  C     -142.665      68.417     130.481
  O     -142.914      67.913     129.183
  H     -142.339      67.593     131.121
  H     -143.576      68.854     130.900
  H     -141.875      69.173     130.444
  P     -143.514      68.953     128.113
  C     -145.936      69.846     127.732
  O     -145.098      68.908     128.392
  C     -147.334      69.816     128.343
  O     -147.995      68.564     128.042
  C     -147.363      69.931     129.868
  O     -147.164      71.255     130.337
  C     -148.774      69.436     130.137
  O     -149.720      70.465     129.782
  C     -148.858      68.240     129.168
  N     -148.442      66.972     129.785
  C     -149.394      66.316     130.572
  O     -150.516      66.793     130.735
  N     -149.037      65.144     131.199
  C     -147.847      64.654     131.034
  N     -147.555      63.491     131.681
  C     -146.817      65.305     130.201
  C     -147.179      66.445     129.613
  O     -143.379      68.171     126.721
  O     -142.913      70.319     128.115
  H     -150.599      70.136     130.046
  H     -143.858      68.667     126.009
  H     -145.835      64.864     130.108
  H     -146.475      66.981     128.986
  H     -149.877      68.118     128.777
  H     -148.953      69.189     131.185
  H     -146.650      69.238     130.337
  H     -147.921      70.618     127.873
  H     -148.257      63.101     132.290
  H     -145.984      69.579     126.669
  H     -146.615      63.114     131.738
  H     -145.522      70.855     127.827
  P     -146.348      71.434     131.708
  C     -146.862      71.082     134.241
  O     -147.349      71.048     132.902
  O     -146.203      73.019     131.843
  O     -145.015      70.743     131.742
  H     -145.357      73.258     132.261
  H     -147.646      70.801     134.913
  H     -146.530      72.072     134.475
  H     -146.045      70.399     134.341

 6  7  8  9  10  11  12  13  14  15  16  26  30  31  32  33  35 0
 6-311+G(2d,p)
 ****
 37  38 0
 6-311+G(2d,p)
 ****
 1  2  3  4  5  17  18  19  20  21  22  23  24  25 0
 3-21G
 ****
 27  28  29  34  36  39  40  41  42  43  44  45  46 0
 3-21G
 ****


