%nproc=1
%NoSave
%Mem=1900MB
#P OB98/GEN NMR

erre ene a

0 1
  C      525.426    -892.000    -440.064
  O      525.240    -893.160    -440.870
  P      526.404    -894.260    -440.901
  C      525.455    -896.070    -439.292
  O      526.379    -895.020    -439.478
  C      526.200    -897.360    -438.923
  O      527.017    -897.750    -440.050
  C      527.119    -897.250    -437.699
  O      527.112    -898.530    -437.045
  C      528.482    -897.000    -438.325
  O      529.543    -897.330    -437.450
  C      528.383    -897.860    -439.564
  N      533.159    -896.510    -440.558
  C      532.536    -896.800    -439.347
  N      533.331    -896.790    -438.272
  N      531.289    -897.100    -439.222
  C      530.610    -897.070    -440.401
  C      531.093    -896.780    -441.657
  C      532.493    -896.500    -441.784
  O      533.089    -896.330    -442.852
  N      530.089    -896.790    -442.584
  C      529.029    -897.190    -441.921
  N      529.308    -897.420    -440.606
  O      527.727    -893.360    -440.813
  O      526.403    -895.190    -442.086
  H      529.469    -898.290    -437.236
  H      528.084    -893.190    -441.709
  H      534.151    -896.320    -440.613
  H      528.040    -897.330    -442.333
  H      528.594    -898.920    -439.366
  H      528.576    -895.930    -438.591
  H      534.350    -896.610    -438.289
  H      526.809    -896.460    -436.994
  H      532.944    -897.030    -437.376
  H      525.449    -898.150    -438.769
  H      524.914    -896.240    -440.233
  H      524.715    -895.800    -438.516
  P      527.459    -898.570    -435.484
  C      525.045    -898.950    -434.609
  O      526.163    -898.070    -434.696
  O      528.472    -897.350    -435.285
  O      528.067    -899.860    -435.025
  H      529.116    -897.560    -434.592
  H      524.441    -898.700    -433.727
  H      525.347    -900.000    -434.511
  H      524.454    -898.860    -435.510
  H      524.568    -891.366    -440.148
  H      526.295    -891.471    -440.396
  H      525.555    -892.292    -439.043

 3  4  5  6  7  8  9  10  11  12  23  26  30  31 0
 6-311+G(2d,p)
 ****
 33  35  36  37  38 0
 6-311+G(2d,p)
 ****
 1  2  13  14  15  16  17  18  19  20  21  22  24  25 0
 3-21G
 ****
 27  28  29  32  34  39  40  41  42  43  44  45  46  47  48  49 0
 3-21G
 ****


