%nproc=1
%NoSave
%Mem=1900MB
#P OB98/GEN NMR

erre ene a

0 1
  C      862.026    1392.318    1452.154
  O      862.503    1392.458    1453.472
  H      862.458    1391.412    1451.721
  H      862.331    1393.175    1451.543
  H      860.939    1392.214    1452.125
  P      861.813    1393.620    1454.344
  C      860.097    1392.136    1455.625
  O      861.276    1392.912    1455.697
  C      860.160    1390.958    1456.625
  O      861.120    1389.982    1456.155
  C      860.585    1391.371    1458.031
  O      859.508    1391.864    1458.781
  C      861.069    1390.027    1458.553
  O      859.911    1389.214    1458.920
  C      861.773    1389.431    1457.334
  N      866.411    1388.095    1458.918
  C      865.171    1387.529    1459.243
  N      865.157    1386.506    1460.097
  N      864.040    1387.999    1458.742
  C      864.194    1389.040    1457.898
  C      865.379    1389.668    1457.522
  C      866.611    1389.168    1458.052
  O      867.714    1389.590    1457.818
  N      865.128    1390.696    1456.648
  C      863.802    1390.716    1456.510
  N      863.202    1389.730    1457.258
  O      860.468    1393.957    1453.543
  O      862.634    1394.844    1454.544
  H      859.262    1389.815    1459.336
  H      860.277    1394.910    1453.615
  H      867.230    1387.716    1459.328
  H      863.269    1391.392    1455.878
  H      861.661    1388.338    1457.273
  H      861.668    1390.101    1459.460
  H      866.012    1386.150    1460.543
  H      861.460    1392.067    1458.003
  H      864.266    1386.064    1460.320
  H      859.170    1390.485    1456.637
  H      859.989    1391.741    1454.608
  H      859.224    1392.786    1455.849
  P      859.872    1392.801    1460.073
  C      860.463    1394.698    1458.393
  O      859.705    1394.307    1459.544
  O      861.448    1392.606    1460.230
  O      859.127    1392.457    1461.297
  H      861.705    1392.798    1461.159
  H      860.252    1395.720    1458.157
  H      860.196    1394.078    1457.563
  H      861.507    1394.588    1458.599

 6  7  8  9  10  11  12  13  14  15  26  29  33  34 0
 6-311+G(2d,p)
 ****
 36  38  39  40  41 0
 6-311+G(2d,p)
 ****
 1  2  3  4  5  16  17  18  19  20  21  22  23  24  25 0
 3-21G
 ****
 27  28  30  31  32  35  37  42  43  44  45  46  47 0
 3-21G
 ****
 48  49 0
 3-21G
 ****


