%nproc=1
%NoSave
%Mem=1900MB
#P OB98/GEN NMR

erre ene a

0 1
  C      248.351     894.516     146.835
  O      249.332     893.673     147.397
  H      248.724     894.899     145.881
  H      248.166     895.361     147.504
  H      247.416     893.977     146.655
  P      248.895     892.635     148.533
  C      250.901     893.220     150.049
  O      250.210     892.196     149.342
  C      252.095     892.667     150.826
  O      251.623     891.910     151.961
  C      252.954     891.716     149.986
  O      253.956     892.357     149.214
  C      253.572     890.819     151.054
  O      254.794     891.380     151.563
  C      252.502     890.787     152.154
  N      252.356     885.830     153.400
  C      253.432     886.696     153.412
  N      254.622     886.157     153.761
  N      253.347     887.958     153.090
  C      252.118     888.329     152.661
  C      250.976     887.554     152.587
  C      251.070     886.175     153.018
  O      250.139     885.375     153.042
  N      249.923     888.263     152.072
  C      250.442     889.431     151.749
  N      251.753     889.546     152.165
  O      248.538     891.306     147.706
  O      247.730     893.056     149.379
  H      255.235     890.703     152.110
  H      247.837     890.812     148.164
  H      252.480     884.875     153.683
  H      249.914     890.242     151.261
  H      252.950     890.900     153.150
  H      253.819     889.842     150.645
  H      254.762     885.172     153.933
  H      252.325     891.095     149.338
  H      255.470     886.708     153.601
  H      252.688     893.501     151.221
  H      250.177     893.663     150.737
  H      251.223     894.009     149.360
  P      254.269     891.899     147.717
  C      256.859     891.502     147.883
  O      255.781     892.265     147.381
  O      253.429     892.936     146.838
  O      253.913     890.484     147.396
  H      252.583     892.549     146.554
  H      257.782     891.919     147.538
  H      256.772     890.493     147.539
  H      256.839     891.517     148.953

 6  7  8  9  10  11  12  13  14  15  26  29  33  34 0
 6-311+G(2d,p)
 ****
 36  38  39  40  41 0
 6-311+G(2d,p)
 ****
 1  2  3  4  5  16  17  18  19  20  21  22  23  24  25 0
 3-21G
 ****
 27  28  30  31  32  35  37  42  43  44  45  46  47 0
 3-21G
 ****
 48  49 0
 3-21G
 ****


