%nproc=1
%NoSave
%Mem=1900MB
#P OB98/GEN NMR

erre ene a

0 1
  C       35.572     742.347     319.898
  O       34.505     741.423     319.872
  H       36.523     741.827     319.738
  H       35.436     743.073     319.096
  H       35.595     742.868     320.860
  P       34.543     740.235     320.949
  C       31.996     739.823     321.233
  O       33.226     739.335     320.707
  C       30.829     739.098     320.571
  O       30.832     739.418     319.152
  C       30.860     737.563     320.717
  O       29.657     737.101     321.349
  C       30.867     737.050     319.283
  O       30.045     735.906     319.092
  C       30.373     738.246     318.471
  N       30.110     735.738     314.045
  C       29.246     735.805     315.083
  N       29.328     736.579     316.186
  C       30.421     737.364     316.155
  C       31.378     737.410     315.147
  C       31.204     736.533     314.063
  N       32.110     736.425     313.029
  N       32.372     738.321     315.464
  C       32.037     738.781     316.651
  N       30.874     738.211     317.122
  O       34.242     740.987     322.334
  O       35.821     739.474     321.011
  H       30.411     735.198     319.658
  H       34.880     740.709     323.008
  H       28.378     735.155     315.026
  H       32.620     739.481     317.253
  H       29.270     738.284     318.429
  H       31.902     736.790     319.008
  H       31.739     737.205     321.261
  H       29.892     739.502     320.988
  H       31.914     740.895     321.036
  H       31.956     735.687     312.359
  H       32.976     736.937     313.090
  H       31.988     739.675     322.322
  P       29.848     736.188     322.670
  C       27.539     736.722     323.757
  O       28.392     735.749     323.160
  O       30.297     737.258     323.788
  O       30.856     735.089     322.507
  H       30.834     736.830     324.474
  H       26.609     736.265     324.025
  H       27.359     737.514     323.060
  H       28.008     737.118     324.634

 6  7  8  9  10  11  12  13  14  15  25  28  32  33  34  35 0
 6-311+G(2d,p)
 ****
 36  39  40 0
 6-311+G(2d,p)
 ****
 1  2  3  4  5  16  17  18  19  20  21  22  23  24 0
 3-21G
 ****
 26  27  29  30  31  37  38  41  42  43  44  45  46  47  48 0
 3-21G
 ****


