%nproc=1
%NoSave
%Mem=1900MB
#P OB98/GEN NMR

erre ene a

0 1
  C      254.107    -366.026    1021.508
  O      253.845    -364.955    1020.618
  H      255.146    -365.955    1021.843
  H      253.968    -366.984    1020.998
  H      253.453    -365.967    1022.385
  P      252.358    -364.761    1020.056
  C      252.258    -362.429    1021.140
  O      251.633    -363.701    1021.024
  C      251.206    -361.322    1021.197
  O      250.548    -361.230    1019.904
  C      250.132    -361.550    1022.267
  O      249.795    -360.282    1022.835
  C      248.953    -362.080    1021.469
  O      247.699    -361.800    1022.103
  C      249.127    -361.361    1020.134
  N      245.140    -361.441    1017.027
  C      245.512    -360.501    1017.970
  N      244.701    -359.430    1018.124
  N      246.608    -360.595    1018.694
  C      247.337    -361.707    1018.426
  C      247.070    -362.713    1017.518
  C      245.856    -362.598    1016.738
  O      245.463    -363.406    1015.899
  N      248.036    -363.689    1017.549
  C      248.878    -363.280    1018.478
  N      248.494    -362.090    1019.042
  O      251.586    -366.024    1019.833
  O      252.561    -363.941    1018.698
  H      247.005    -362.228    1021.565
  H      252.513    -364.536    1017.927
  H      244.294    -361.315    1016.509
  H      249.783    -363.802    1018.780
  H      248.690    -360.344    1020.138
  H      249.049    -363.163    1021.346
  H      243.864    -359.291    1017.590
  H      250.439    -362.251    1023.047
  H      244.975    -358.724    1018.797
  H      251.727    -360.362    1021.353
  H      252.902    -362.278    1020.261
  H      252.882    -362.407    1022.032
  P      249.028    -360.269    1024.256
  C      250.276    -358.343    1025.424
  O      250.061    -359.750    1025.372
  O      248.271    -361.510    1024.599
  O      248.038    -359.002    1024.095
  H      247.241    -359.176    1024.644
  H      250.978    -358.118    1026.200
  H      249.349    -357.848    1025.627
  H      250.662    -358.006    1024.485

 6  7  8  9  10  11  12  13  14  15  26  29  33  34 0
 6-311+G(2d,p)
 ****
 36  38  39  40  41 0
 6-311+G(2d,p)
 ****
 1  2  3  4  5  16  17  18  19  20  21  22  23  24  25 0
 3-21G
 ****
 27  28  30  31  32  35  37  42  43  44  45  46  47 0
 3-21G
 ****
 48  49 0
 3-21G
 ****


