%nproc=1
%NoSave
%Mem=1900MB
#P OB98/GEN NMR

erre ene a

0 1
  C      147.059    -286.031    -443.525
  O      147.233    -287.313    -444.136
  P      148.569    -287.598    -444.969
  C      149.972    -288.778    -443.169
  O      149.811    -287.602    -443.958
  C      151.450    -289.196    -443.114
  O      152.275    -288.145    -442.546
  C      151.701    -290.415    -442.243
  O      151.256    -291.588    -442.900
  C      153.194    -290.310    -442.004
  O      153.935    -290.850    -443.109
  C      153.409    -288.781    -441.917
  N      153.602    -288.299    -440.552
  C      154.903    -288.421    -440.043
  O      155.795    -288.934    -440.718
  N      155.154    -287.956    -438.773
  C      154.197    -287.433    -438.083
  N      154.502    -286.994    -436.829
  C      152.820    -287.310    -438.579
  C      152.587    -287.764    -439.809
  O      148.749    -286.769    -446.202
  O      148.424    -289.151    -445.355
  H      154.884    -290.657    -442.929
  H      148.878    -289.309    -446.210
  H      152.053    -286.864    -437.948
  H      151.602    -287.706    -440.244
  H      154.286    -288.480    -442.501
  H      153.509    -290.866    -441.112
  H      151.164    -290.310    -441.285
  H      151.792    -289.389    -444.136
  H      155.463    -287.109    -436.513
  H      149.379    -289.590    -443.595
  H      153.834    -286.528    -436.220
  H      149.575    -288.592    -442.159
  P      150.319    -292.602    -442.080
  C      148.282    -291.011    -441.807
  O      149.333    -291.711    -441.176
  O      151.325    -293.239    -441.008
  O      149.649    -293.669    -442.886
  H      151.076    -294.165    -440.825
  H      147.532    -290.742    -441.053
  H      147.789    -291.650    -442.562
  H      148.653    -290.112    -442.283
  H      146.121    -286.005    -443.011
  H      147.073    -285.272    -444.279
  H      147.853    -285.857    -442.829

 3  4  5  6  7  8  9  10  11  12  13  23  27  28  29  30  32 0
 6-311+G(2d,p)
 ****
 34  35 0
 6-311+G(2d,p)
 ****
 1  2  14  15  16  17  18  19  20  21  22  24  25  26 0
 3-21G
 ****
 31  33  36  37  38  39  40  41  42  43  44  45  46 0
 3-21G
 ****


