%nproc=1
%NoSave
%Mem=1900MB
#P OB98/GEN NMR

erre ene a

0 1
  C     -893.410    -984.431    -244.345
  O     -893.030    -983.112    -243.867
  P     -894.020    -981.944    -244.297
  C     -894.870    -981.337    -241.916
  O     -895.220    -981.818    -243.216
  C     -896.060    -980.623    -241.254
  O     -896.340    -979.404    -241.918
  C     -897.330    -981.478    -241.206
  O     -898.050    -981.137    -239.996
  C     -898.130    -980.928    -242.402
  O     -899.500    -981.229    -242.274
  C     -897.750    -979.420    -242.298
  N     -897.990    -978.727    -243.550
  C     -899.050    -977.790    -243.609
  O     -899.770    -977.663    -242.643
  N     -899.250    -977.086    -244.752
  C     -898.490    -977.294    -245.782
  N     -898.760    -976.538    -246.897
  C     -897.420    -978.294    -245.803
  C     -897.210    -978.960    -244.655
  O     -894.740    -982.462    -245.609
  O     -893.270    -980.631    -244.565
  H     -900.000    -980.787    -243.028
  H     -894.690    -981.814    -246.308
  H     -896.840    -978.442    -246.706
  H     -896.440    -979.704    -244.565
  H     -898.350    -978.912    -241.527
  H     -897.750    -981.364    -243.346
  H     -897.180    -982.558    -241.261
  H     -895.780    -980.370    -240.237
  H     -899.500    -975.862    -246.836
  H     -894.020    -980.634    -241.981
  H     -898.250    -976.632    -247.773
  H     -894.550    -982.200    -241.308
  P     -898.330    -982.347    -238.992
  C     -896.500    -981.509    -237.373
  O     -896.920    -982.540    -238.210
  O     -898.400    -983.594    -239.937
  O     -899.520    -982.241    -238.091
  H     -898.620    -984.371    -239.406
  H     -895.570    -981.844    -236.856
  H     -897.250    -981.267    -236.662
  H     -896.210    -980.598    -237.940
  H     -892.693    -985.152    -244.011
  H     -893.441    -984.428    -245.415
  H     -894.376    -984.685    -243.961

 3  4  5  6  7  8  9  10  11  12  13  21  23  27  28  29  30  32 0
 6-311+G(2d,p)
 ****
 34  35 0
 6-311+G(2d,p)
 ****
 1  2  14  15  16  17  18  19  20  22  24  25  26 0
 3-21G
 ****
 31  33  36  37  38  39  40  41  42  43  44  45  46 0
 3-21G
 ****


