%nproc=1
%NoSave
%Mem=1900MB
#P OB98/GEN NMR

erre ene a

0 1
  C      -11.455     -21.287     105.440
  O      -10.295     -21.393     104.643
  P      -10.268     -20.847     103.138
  C      -10.093     -23.206     102.116
  O       -9.469     -21.935     102.264
  C       -9.034     -24.304     101.963
  O       -8.269     -24.050     100.746
  C       -8.043     -24.349     103.144
  O       -7.898     -25.636     103.747
  C       -6.775     -23.765     102.541
  O       -5.594     -24.108     103.240
  C       -6.881     -24.234     101.086
  N       -5.985     -23.499     100.195
  C       -4.878     -24.185      99.702
  O       -4.617     -25.358      99.954
  N       -4.017     -23.454      98.931
  C       -4.085     -22.113      98.707
  O       -3.223     -21.503      98.089
  C       -5.253     -21.432      99.288
  C       -6.150     -22.146      99.973
  O       -9.778     -19.447     102.973
  O      -11.776     -21.068     102.643
  H       -5.421     -25.057     103.089
  H      -12.083     -21.990     102.668
  H       -3.210     -23.938      98.566
  H       -5.329     -20.367      99.137
  H       -7.021     -21.672     100.414
  H       -6.661     -25.299     100.991
  H       -6.861     -22.672     102.579
  H       -8.382     -23.707     103.967
  H       -9.557     -25.259     101.852
  H      -10.721     -23.187     101.223
  H      -10.745     -23.401     102.973
  P       -8.562     -26.083     105.135
  C       -6.620     -26.789     106.710
  O       -7.625     -27.193     105.802
  O      -10.010     -26.438     105.062
  O       -8.344     -24.805     106.079
  H       -9.059     -24.764     106.739
  H       -5.798     -27.513     106.673
  H       -7.030     -26.780     107.722
  H       -6.227     -25.798     106.467
  H      -11.265     -21.709     106.405
  H      -12.259     -21.816     104.972
  H      -11.721     -20.256     105.547

 3  4  5  6  7  8  9  10  11  12  13  23  28  29  30  31  32 0
 6-311+G(2d,p)
 ****
 33  34 0
 6-311+G(2d,p)
 ****
 1  2  14  15  16  17  18  19  20  21  22  24  25  26  27 0
 3-21G
 ****
 35  36  37  38  39  40  41  42  43  44  45 0
 3-21G
 ****


