%nproc=1
%NoSave
%Mem=1900MB
#P OB98/GEN NMR

erre ene a

0 1
  C      145.394      96.148      37.567
  O      145.193      94.799      37.195
  P      146.300      93.688      37.510
  C      147.410      92.712      39.604
  O      146.673      93.804      39.070
  C      148.449      93.186      40.621
  O      149.482      93.941      39.926
  C      147.893      94.089      41.733
  O      148.647      93.803      42.914
  C      148.237      95.485      41.233
  O      148.253      96.456      42.272
  C      149.595      95.217      40.592
  N      152.145      99.598      39.918
  C      151.915      98.852      41.020
  N      151.200      97.711      41.123
  C      150.706      97.351      39.926
  C      150.830      98.021      38.724
  C      151.608      99.196      38.739
  N      151.884      99.948      37.619
  N      150.129      97.368      37.726
  C      149.594      96.321      38.325
  N      149.968      96.234      39.637
  O      147.474      93.681      36.589
  O      145.500      92.307      37.432
  H      149.074      96.344      42.787
  H      145.732      91.833      36.608
  H      152.362      99.216      41.941
  H      148.933      95.603      37.858
  H      150.396      95.141      41.338
  H      147.499      95.800      40.485
  H      146.821      93.962      41.916
  H      148.932      92.302      41.053
  H      147.920      92.210      38.775
  H      152.557     100.690      37.719
  H      151.726      99.535      36.698
  H      146.725      91.996      40.069
  P      148.020      94.108      44.357
  C      146.140      93.037      45.727
  O      146.632      93.311      44.428
  O      147.950      95.552      44.735
  O      148.965      93.281      45.357
  H      148.843      93.616      46.269
  H      146.656      92.163      46.132
  H      145.070      92.825      45.664
  H      146.291      93.891      46.396
  H      144.546      96.730      37.271
  H      146.271      96.524      37.083
  H      145.517      96.211      38.628

 3  4  5  6  7  8  9  10  11  12  22  25  29  30  31  32 0
 6-311+G(2d,p)
 ****
 33  36  37 0
 6-311+G(2d,p)
 ****
 1  2  13  14  15  16  17  18  19  20  21  23  24  26 0
 3-21G
 ****
 27  28  34  35  38  39  40  41  42  43  44  45  46  47  48 0
 3-21G
 ****


