%nproc=1
%NoSave
%Mem=1900MB
#P OB98/GEN NMR

erre ene a

0 1
  C      416.064    -148.275     -30.137
  O      415.572    -147.661     -31.314
  H      416.921    -148.901     -30.401
  H      415.293    -148.907     -29.684
  H      416.389    -147.511     -29.425
  P      414.280    -146.725     -31.149
  C      411.846    -147.295     -30.527
  O      413.215    -147.647     -30.376
  C      410.947    -148.511     -30.274
  O      410.995    -149.366     -31.447
  C      411.380    -149.346     -29.068
  O      410.217    -149.826     -28.385
  C      412.118    -150.519     -29.694
  O      412.104    -151.674     -28.858
  C      411.370    -150.688     -31.017
  N      411.294    -153.172     -35.472
  C      410.325    -152.546     -34.775
  N      410.439    -151.890     -33.593
  C      411.715    -151.885     -33.174
  C      412.807    -152.488     -33.779
  C      412.560    -153.163     -34.986
  N      413.536    -153.828     -35.695
  N      413.944    -152.301     -33.016
  C      413.549    -151.582     -31.978
  N      412.206    -151.323     -32.020
  O      413.781    -146.083     -32.403
  O      414.756    -145.713     -30.004
  H      411.170    -151.905     -28.664
  H      415.217    -146.181     -29.283
  H      409.328    -152.574     -35.211
  H      414.190    -151.243     -31.165
  H      410.462    -151.296     -30.912
  H      413.166    -150.241     -29.872
  H      412.012    -148.790     -28.377
  H      409.912    -148.167     -30.174
  H      411.664    -146.907     -31.535
  H      413.273    -154.276     -36.561
  H      414.486    -153.817     -35.355
  H      411.618    -146.502     -29.803
  P      409.720    -149.029     -27.083
  C      409.905    -149.326     -24.526
  O      410.471    -149.626     -25.797
  O      408.242    -148.869     -26.944
  O      410.431    -147.599     -27.256
  H      409.822    -146.899     -26.945
  H      410.495    -149.779     -23.757
  H      408.907    -149.708     -24.481
  H      409.888    -148.266     -24.385

 6  7  8  9  10  11  12  13  14  15  25  28  32  33  34  35 0
 6-311+G(2d,p)
 ****
 36  39  40 0
 6-311+G(2d,p)
 ****
 1  2  3  4  5  16  17  18  19  20  21  22  23  24 0
 3-21G
 ****
 26  27  29  30  31  37  38  41  42  43  44  45  46  47 0
 3-21G
 ****
 48 0
 3-21G
 ****


