%nproc=1
%NoSave
%Mem=1900MB
#P OB98/GEN NMR

erre ene a

0 1
  C      390.883    -311.466    -452.019
  O      390.587    -311.334    -453.411
  P      389.098    -310.951    -453.855
  C      389.451    -308.531    -454.647
  O      388.895    -309.377    -453.644
  C      388.550    -307.313    -454.890
  O      388.546    -306.422    -453.750
  C      388.997    -306.458    -456.064
  O      388.681    -307.100    -457.287
  C      388.262    -305.163    -455.786
  O      386.905    -305.224    -456.250
  C      388.295    -305.085    -454.241
  N      389.271    -304.132    -453.727
  C      388.777    -302.849    -453.440
  O      387.595    -302.574    -453.649
  N      389.644    -301.918    -452.925
  C      390.883    -302.229    -452.727
  N      391.695    -301.263    -452.220
  C      391.435    -303.558    -453.035
  C      390.586    -304.454    -453.537
  O      388.017    -311.819    -453.295
  O      389.158    -311.087    -455.453
  H      386.948    -305.238    -457.232
  H      388.273    -311.349    -455.785
  H      392.488    -303.762    -452.855
  H      390.918    -305.449    -453.786
  H      387.312    -304.799    -453.850
  H      388.726    -304.305    -456.293
  H      390.084    -306.284    -456.013
  H      387.525    -307.666    -455.054
  H      391.280    -300.353    -452.031
  H      389.564    -309.095    -455.577
  H      392.673    -301.419    -451.986
  H      390.461    -308.224    -454.337
  P      389.880    -307.401    -458.310
  C      390.208    -309.921    -457.771
  O      390.739    -308.616    -457.693
  O      390.849    -306.137    -458.114
  O      389.495    -307.563    -459.745
  H      391.286    -305.919    -458.960
  H      391.021    -310.642    -457.622
  H      389.768    -310.105    -458.762
  H      389.450    -310.071    -457.010
  H      391.914    -311.723    -451.897
  H      390.271    -312.235    -451.596
  H      390.685    -310.539    -451.523

 3  4  5  6  7  8  9  10  11  12  13  23  27  28  29  30  32 0
 6-311+G(2d,p)
 ****
 34  35 0
 6-311+G(2d,p)
 ****
 1  2  14  15  16  17  18  19  20  21  22  24  25  26 0
 3-21G
 ****
 31  33  36  37  38  39  40  41  42  43  44  45  46 0
 3-21G
 ****


