%nproc=1
%NoSave
%Mem=1900MB
#P OB98/GEN NMR

erre ene a

0 1
  C      592.998     -93.753    -110.803
  O      592.062     -92.700    -111.032
  P      592.617     -91.199    -111.149
  C      592.053     -90.354    -108.770
  O      593.085     -90.708    -109.692
  C      592.493     -89.170    -107.896
  O      593.619     -89.578    -107.082
  C      592.964     -87.934    -108.675
  O      591.992     -86.957    -109.045
  C      593.879     -87.268    -107.650
  O      593.092     -86.476    -106.734
  C      594.504     -88.444    -106.900
  N      599.500     -87.612    -106.189
  C      598.403     -87.138    -105.557
  N      597.109     -87.406    -105.805
  C      596.995     -88.275    -106.823
  C      598.016     -88.841    -107.570
  C      599.331     -88.474    -107.214
  N      600.442     -88.950    -107.870
  N      597.508     -89.677    -108.537
  C      596.201     -89.601    -108.395
  N      595.837     -88.777    -107.365
  O      591.758     -90.245    -111.904
  O      594.023     -91.415    -111.893
  H      592.706     -85.752    -107.261
  H      594.165     -90.672    -112.519
  H      598.596     -86.444    -104.737
  H      595.482     -90.124    -109.016
  H      594.578     -88.263    -105.826
  H      594.596     -86.588    -108.112
  H      593.547     -88.228    -109.555
  H      591.668     -88.895    -107.225
  H      591.824     -91.216    -108.138
  H      601.345     -88.599    -107.582
  H      600.332     -89.549    -108.673
  H      591.156     -90.143    -109.354
  P      591.304     -86.972    -110.493
  C      593.508     -86.564    -111.857
  O      592.456     -87.450    -111.507
  O      590.613     -85.711    -110.881
  O      590.355     -88.259    -110.410
  H      590.825     -89.108    -110.369
  H      594.283     -87.132    -112.370
  H      593.940     -86.099    -110.961
  H      593.128     -85.788    -112.529
  H      592.478     -94.687    -110.750
  H      593.513     -93.578    -109.882
  H      593.704     -93.783    -111.606

 3  4  5  6  7  8  9  10  11  12  22  25  29  30  31  32 0
 6-311+G(2d,p)
 ****
 33  36  37 0
 6-311+G(2d,p)
 ****
 1  2  13  14  15  16  17  18  19  20  21  23  24  26 0
 3-21G
 ****
 27  28  34  35  38  39  40  41  42  43  44  45  46  47  48 0
 3-21G
 ****


