%nproc=1
%NoSave
%Mem=1900MB
#P OB98/GEN NMR

erre ene a

0 1
  C      -19.221     -77.463      83.276
  O      -18.212     -76.838      84.078
  P      -17.860     -75.280      83.932
  C      -16.519     -73.702      82.412
  O      -16.757     -75.056      82.783
  C      -15.829     -73.562      81.048
  O      -14.473     -74.084      81.094
  C      -16.535     -74.277      79.889
  O      -16.264     -73.499      78.721
  C      -15.794     -75.602      79.832
  O      -15.949     -76.286      78.597
  C      -14.370     -75.135      80.116
  N      -11.265     -78.972      78.750
  C      -11.812     -77.965      78.038
  N      -12.597     -76.961      78.478
  C      -12.770     -77.034      79.807
  C      -12.267     -77.998      80.667
  C      -11.489     -79.014      80.085
  N      -10.967     -80.070      80.797
  N      -12.683     -77.764      81.963
  C      -13.433     -76.683      81.881
  N      -13.514     -76.201      80.601
  O      -17.534     -74.601      85.224
  O      -19.184     -74.636      83.299
  H      -15.279     -76.992      78.552
  H      -19.404     -73.817      83.782
  H      -11.598     -77.969      76.973
  H      -13.956     -76.220      82.709
  H      -13.903     -74.711      79.218
  H      -16.170     -76.259      80.625
  H      -17.611     -74.396      80.040
  H      -15.741     -72.490      80.833
  H      -15.895     -73.235      83.182
  H      -10.502     -80.797      80.277
  H      -11.229     -80.186      81.765
  H      -17.478     -73.171      82.393
  P      -17.439     -72.961      77.774
  C      -18.389     -73.633      75.497
  O      -17.637     -74.052      76.621
  O      -17.261     -71.561      77.289
  O      -18.768     -73.112      78.657
  H      -19.469     -72.541      78.290
  H      -19.453     -73.624      75.750
  H      -18.223     -74.335      74.675
  H      -18.084     -72.632      75.174
  H      -19.292     -78.499      83.535
  H      -18.962     -77.371      82.242
  H      -20.163     -76.986      83.452

 3  4  5  6  7  8  9  10  11  12  22  25  29  30  31  32 0
 6-311+G(2d,p)
 ****
 33  36  37 0
 6-311+G(2d,p)
 ****
 1  2  13  14  15  16  17  18  19  20  21  23  24  26 0
 3-21G
 ****
 27  28  34  35  38  39  40  41  42  43  44  45  46  47  48 0
 3-21G
 ****


