%nproc=1
%NoSave
%Mem=1900MB
#P OB98/GEN NMR

erre ene a

0 1
  C      140.397    -236.151    -349.969
  O      139.154    -235.463    -349.759
  P      138.745    -234.876    -348.316
  C      136.459    -235.959    -347.875
  O      137.148    -234.748    -348.194
  C      134.975    -235.937    -348.281
  O      134.280    -234.810    -347.655
  C      134.713    -235.815    -349.794
  O      133.487    -236.517    -350.034
  C      134.514    -234.317    -349.970
  O      133.850    -233.976    -351.176
  C      133.734    -233.986    -348.700
  N      131.599    -229.366    -349.358
  C      131.175    -230.614    -349.688
  N      131.776    -231.789    -349.449
  C      132.922    -231.617    -348.754
  C      133.479    -230.416    -348.336
  C      132.765    -229.248    -348.671
  N      133.221    -227.977    -348.382
  N      134.672    -230.630    -347.677
  C      134.848    -231.938    -347.704
  N      133.810    -232.583    -348.342
  O      139.487    -233.632    -347.935
  O      139.111    -236.051    -347.292
  H      133.749    -233.006    -351.212
  H      139.575    -235.681    -346.524
  H      130.235    -230.659    -350.229
  H      135.690    -232.472    -347.303
  H      132.668    -234.249    -348.812
  H      135.499    -233.823    -349.985
  H      135.517    -236.221    -350.402
  H      134.509    -236.844    -347.883
  H      136.539    -236.133    -346.797
  H      132.690    -227.196    -348.747
  H      134.140    -227.866    -347.990
  H      136.958    -236.793    -348.386
  P      133.474    -238.070    -350.466
  C      131.488    -237.784    -352.069
  O      131.954    -238.403    -350.883
  O      134.079    -239.004    -349.471
  O      134.253    -238.100    -351.863
  H      134.548    -239.010    -352.045
  H      131.245    -236.731    -351.856
  H      130.577    -238.296    -352.396
  H      132.238    -237.829    -352.866
  H      140.468    -236.456    -350.992
  H      140.439    -237.013    -349.337
  H      141.211    -235.497    -349.735

 3  4  5  6  7  8  9  10  11  12  22  25  29  30  31  32 0
 6-311+G(2d,p)
 ****
 33  36  37 0
 6-311+G(2d,p)
 ****
 1  2  13  14  15  16  17  18  19  20  21  23  24  26 0
 3-21G
 ****
 27  28  34  35  38  39  40  41  42  43  44  45  46  47  48 0
 3-21G
 ****


