%nproc=1
%NoSave
%Mem=1900MB
#P OB98/GEN NMR

erre ene a

0 1
  C      167.674    -442.573    -943.699
  O      168.514    -443.511    -943.058
  H      167.991    -441.554    -943.467
  H      167.746    -442.723    -944.781
  H      166.636    -442.720    -943.397
  P      168.548    -443.471    -941.454
  C      170.881    -442.323    -941.514
  O      169.530    -442.263    -941.070
  C      171.323    -440.952    -942.016
  O      170.349    -440.424    -942.951
  C      171.438    -439.886    -940.916
  O      172.672    -439.992    -940.217
  C      171.377    -438.619    -941.748
  O      172.651    -438.403    -942.392
  C      170.317    -438.980    -942.793
  N      166.865    -435.192    -942.891
  C      168.133    -435.274    -943.357
  N      168.985    -436.322    -943.285
  C      168.412    -437.357    -942.658
  C      167.141    -437.421    -942.125
  C      166.330    -436.275    -942.269
  N      165.048    -436.186    -941.788
  N      166.907    -438.647    -941.527
  C      168.021    -439.316    -941.734
  N      168.974    -438.585    -942.401
  O      169.394    -444.772    -941.056
  O      167.213    -443.429    -940.780
  H      173.285    -438.173    -941.688
  H      169.212    -445.026    -940.135
  H      168.510    -434.381    -943.844
  H      168.201    -440.341    -941.407
  H      170.514    -438.535    -943.772
  H      171.163    -437.736    -941.158
  H      170.579    -439.918    -940.226
  H      172.276    -441.071    -942.555
  H      170.956    -443.050    -942.331
  H      164.631    -435.267    -941.780
  H      164.694    -436.924    -941.189
  H      171.523    -442.648    -940.684
  P      172.598    -440.329    -938.646
  C      173.611    -437.941    -938.393
  O      172.697    -438.924    -937.891
  O      174.023    -441.014    -938.360
  O      171.458    -441.210    -938.244
  H      173.977    -441.621    -937.592
  H      173.560    -437.063    -937.784
  H      173.349    -437.692    -939.400
  H      174.606    -438.334    -938.370

 6  7  8  9  10  11  12  13  14  15  25  28  32  33  34  35 0
 6-311+G(2d,p)
 ****
 36  39  40 0
 6-311+G(2d,p)
 ****
 1  2  3  4  5  16  17  18  19  20  21  22  23  24 0
 3-21G
 ****
 26  27  29  30  31  37  38  41  42  43  44  45  46  47 0
 3-21G
 ****
 48 0
 3-21G
 ****


