%nproc=1
%NoSave
%Mem=1900MB
#P OB98/GEN NMR

erre ene a

0 1
  C     -981.544    1389.288    -227.610
  O     -980.595    1389.613    -228.605
  H     -982.532    1389.605    -227.954
  H     -981.320    1389.801    -226.685
  H     -981.562    1388.197    -227.446
  P     -979.030    1389.432    -228.284
  C     -978.638    1388.115    -230.444
  O     -978.616    1388.068    -229.034
  C     -978.122    1386.836    -231.081
  O     -976.691    1386.711    -230.819
  C     -978.802    1385.557    -230.546
  O     -979.148    1384.708    -231.635
  C     -977.720    1384.889    -229.692
  O     -977.926    1383.491    -229.556
  C     -976.455    1385.333    -230.455
  N     -975.232    1385.219    -229.646
  C     -974.684    1383.916    -229.550
  O     -975.239    1382.954    -230.117
  N     -973.560    1383.739    -228.808
  C     -973.049    1384.734    -228.147
  N     -971.934    1384.490    -227.409
  C     -973.624    1386.099    -228.175
  C     -974.707    1386.259    -228.941
  O     -978.683    1389.490    -226.828
  O     -978.307    1390.562    -229.161
  H     -977.338    1383.168    -228.832
  H     -977.408    1390.738    -228.801
  H     -973.169    1386.890    -227.610
  H     -975.192    1387.220    -229.021
  H     -976.326    1384.741    -231.364
  H     -977.721    1385.346    -228.681
  H     -979.699    1385.768    -229.955
  H     -978.222    1386.895    -232.168
  H     -971.555    1383.541    -227.432
  H     -978.036    1388.976    -230.784
  H     -971.450    1385.188    -226.882
  H     -979.689    1388.267    -230.774
  P     -980.722    1384.421    -231.822
  C     -981.248    1385.818    -233.949
  O     -981.385    1385.704    -232.531
  O     -981.283    1384.488    -230.322
  O     -981.023    1383.094    -232.468
  H     -981.410    1383.584    -229.976
  H     -981.733    1386.711    -234.283
  H     -981.699    1384.970    -234.420
  H     -980.210    1385.858    -234.205

 6  7  8  9  10  11  12  13  14  15  16  26  30  31  32  33  35 0
 6-311+G(2d,p)
 ****
 37  38 0
 6-311+G(2d,p)
 ****
 1  2  3  4  5  17  18  19  20  21  22  23  24  25 0
 3-21G
 ****
 27  28  29  34  36  39  40  41  42  43  44  45  46 0
 3-21G
 ****


