%nproc=1
%NoSave
%Mem=1900MB
#P OB98/GEN NMR

erre ene a

0 1
  C      528.046    -746.423    -332.549
  O      528.310    -745.440    -333.574
  P      529.835    -745.013    -333.865
  C      531.143    -744.347    -336.007
  O      529.921    -744.288    -335.280
  C      531.015    -743.599    -337.346
  O      530.318    -744.373    -338.339
  C      530.244    -742.286    -337.231
  O      531.077    -741.240    -336.772
  C      529.860    -742.049    -338.673
  O      530.983    -741.481    -339.408
  C      529.569    -743.466    -339.182
  N      524.858    -742.092    -340.624
  C      526.050    -741.499    -340.801
  N      527.266    -741.929    -340.362
  C      527.159    -743.087    -339.725
  C      525.995    -743.797    -339.445
  C      524.789    -743.262    -339.940
  N      523.559    -743.861    -339.758
  N      526.271    -744.951    -338.742
  C      527.577    -744.930    -338.570
  N      528.154    -743.827    -339.134
  O      530.564    -746.435    -334.113
  O      530.482    -744.296    -332.731
  H      530.675    -741.411    -340.345
  H      531.464    -746.400    -333.777
  H      526.055    -740.567    -341.354
  H      528.153    -745.697    -338.068
  H      529.901    -743.638    -340.211
  H      529.029    -741.328    -338.804
  H      529.337    -742.399    -336.613
  H      532.028    -743.389    -337.719
  H      531.412    -745.388    -336.206
  H      522.745    -743.433    -340.169
  H      523.521    -744.747    -339.273
  H      531.953    -743.912    -335.390
  P      530.868    -740.758    -335.237
  C      532.543    -740.075    -333.364
  O      532.271    -740.161    -334.764
  O      530.720    -742.127    -334.449
  O      529.685    -739.850    -335.040
  H      530.124    -741.998    -333.667
  H      533.620    -739.957    -333.234
  H      532.185    -740.975    -332.848
  H      532.036    -739.209    -332.963
  H      526.992    -746.594    -332.481
  H      528.410    -746.065    -331.609
  H      528.540    -747.339    -332.797

 3  4  5  6  7  8  9  10  11  12  22  25  29  30  31  32 0
 6-311+G(2d,p)
 ****
 33  36  37 0
 6-311+G(2d,p)
 ****
 1  2  13  14  15  16  17  18  19  20  21  23  24  26 0
 3-21G
 ****
 27  28  34  35  38  39  40  41  42  43  44  45  46  47  48 0
 3-21G
 ****


