%nproc=1
%NoSave
%Mem=1900MB
#P OB98/GEN NMR

erre ene a

0 1
  C      -85.554     384.470    -127.185
  O      -84.868     385.296    -126.233
  P      -84.124     386.605    -126.809
  C      -85.299     388.219    -125.160
  O      -84.064     387.707    -125.640
  C      -85.073     389.478    -124.305
  O      -84.754     389.116    -122.929
  C      -83.947     390.384    -124.811
  O      -84.313     391.739    -124.522
  C      -82.782     389.992    -123.925
  O      -81.775     390.991    -123.909
  C      -83.505     389.763    -122.597
  N      -81.330     389.639    -117.979
  C      -82.036     390.595    -118.619
  N      -82.570     390.559    -119.863
  C      -82.337     389.362    -120.438
  C      -81.626     388.297    -119.911
  C      -81.091     388.465    -118.614
  N      -80.352     387.508    -117.977
  N      -81.555     387.255    -120.824
  C      -82.219     387.696    -121.881
  N      -82.732     388.946    -121.678
  O      -85.185     387.198    -127.847
  O      -82.819     386.306    -127.475
  H      -81.405     391.092    -124.811
  H      -84.884     387.057    -128.762
  H      -82.195     391.519    -118.053
  H      -82.349     387.147    -122.801
  H      -83.727     390.706    -122.077
  H      -82.329     389.054    -124.292
  H      -83.722     390.268    -125.874
  H      -86.028     390.044    -124.285
  H      -85.811     387.458    -124.553
  H      -79.984     387.720    -117.055
  H      -80.133     386.648    -118.464
  H      -85.961     388.426    -126.006
  P      -83.861     392.843    -125.601
  C      -86.157     394.022    -125.859
  O      -84.830     394.103    -125.381
  O      -84.340     392.230    -126.999
  O      -82.391     393.140    -125.585
  H      -83.786     392.577    -127.725
  H      -86.822     394.479    -125.123
  H      -86.477     392.984    -126.032
  H      -86.226     394.576    -126.801
  H      -86.002     383.640    -126.680
  H      -84.857     384.110    -127.913
  H      -86.314     385.044    -127.673

 3  4  5  6  7  8  9  10  11  12  22  25  29  30  31  32 0
 6-311+G(2d,p)
 ****
 33  36  37 0
 6-311+G(2d,p)
 ****
 1  2  13  14  15  16  17  18  19  20  21  23  24  26 0
 3-21G
 ****
 27  28  34  35  38  39  40  41  42  43  44  45  46  47  48 0
 3-21G
 ****


