%nproc=1
%NoSave
%Mem=1900MB
#P OB98/GEN NMR

erre ene a

0 1
  C     -165.172      97.539    -105.521
  O     -166.016      98.432    -106.259
  P     -167.395      98.893    -105.586
  C     -167.452     100.499    -103.538
  O     -167.167     100.336    -104.921
  C     -167.237     101.958    -103.121
  O     -165.840     102.326    -103.166
  C     -167.959     102.961    -104.009
  O     -169.323     103.114    -103.634
  C     -167.192     104.238    -103.695
  O     -167.661     104.796    -102.450
  C     -165.753     103.723    -103.547
  N     -161.682     105.858    -105.659
  C     -162.163     105.945    -104.368
  N     -161.452     106.711    -103.509
  N     -163.246     105.340    -103.953
  C     -163.843     104.598    -104.912
  C     -163.464     104.430    -106.228
  C     -162.271     105.117    -106.676
  O     -161.803     105.088    -107.813
  N     -164.328     103.605    -106.898
  C     -165.219     103.256    -105.990
  N     -164.980     103.844    -104.773
  O     -167.508      97.929    -104.310
  O     -168.586      98.770    -106.480
  H     -168.636     104.832    -102.510
  H     -168.446      97.795    -104.080
  H     -160.843     106.351    -105.926
  H     -166.049     102.580    -106.164
  H     -165.199     104.249    -102.760
  H     -167.332     105.006    -104.460
  H     -160.583     107.163    -103.745
  H     -167.847     102.704    -105.071
  H     -161.774     106.762    -102.551
  H     -167.594     102.071    -102.088
  H     -166.814      99.845    -102.939
  H     -168.478     100.173    -103.347
  P     -170.445     102.583    -104.652
  C     -172.070     100.557    -104.660
  O     -171.150     101.340    -103.928
  O     -169.576     101.910    -105.818
  O     -171.356     103.637    -105.180
  H     -170.040     101.998    -106.672
  H     -172.322      99.670    -104.068
  H     -171.639     100.234    -105.612
  H     -172.987     101.127    -104.845
  H     -164.295      97.322    -106.094
  H     -165.701      96.631    -105.322
  H     -164.890      97.997    -104.596

 3  4  5  6  7  8  9  10  11  12  23  26  30  31 0
 6-311+G(2d,p)
 ****
 33  35  36  37  38 0
 6-311+G(2d,p)
 ****
 1  2  13  14  15  16  17  18  19  20  21  22  24  25 0
 3-21G
 ****
 27  28  29  32  34  39  40  41  42  43  44  45  46  47  48  49 0
 3-21G
 ****


