%nproc=1
%NoSave
%Mem=1900MB
#P OB98/GEN NMR

erre ene a

0 1
  C       28.003     543.536    -406.027
  O       29.078     542.890    -405.372
  H       28.403     544.112    -406.865
  H       27.481     544.212    -405.348
  H       27.302     542.792    -406.430
  P       28.756     542.001    -404.074
  C       30.445     540.055    -404.214
  O       30.151     541.321    -403.643
  C       31.583     539.380    -403.438
  O       32.812     540.101    -403.626
  C       31.350     539.310    -401.930
  O       30.509     538.214    -401.605
  C       32.778     539.109    -401.438
  O       33.185     537.746    -401.671
  C       33.556     540.058    -402.378
  N       36.571     544.146    -402.407
  C       36.786     542.894    -402.940
  N       37.972     542.686    -403.528
  N       35.912     541.917    -402.887
  C       34.786     542.243    -402.194
  C       34.474     543.447    -401.605
  C       35.411     544.542    -401.723
  O       35.264     545.676    -401.299
  N       33.282     543.381    -400.913
  C       32.853     542.142    -401.135
  N       33.739     541.408    -401.895
  O       27.616     541.034    -404.202
  O       28.501     543.074    -402.912
  H       34.068     537.635    -401.241
  H       27.560     543.303    -402.843
  H       37.286     544.856    -402.461
  H       31.930     541.742    -400.768
  H       34.562     539.666    -402.613
  H       32.892     539.312    -400.376
  H       38.743     543.350    -403.481
  H       30.970     540.257    -401.533
  H       38.172     541.748    -403.884
  H       31.732     538.372    -403.870
  H       30.746     540.217    -405.260
  H       29.565     539.404    -404.203
  P       29.132     538.417    -400.809
  C       27.643     537.259    -402.578
  O       28.187     537.206    -401.266
  O       28.523     539.771    -400.944
  O       29.480     538.011    -399.302
  H       29.869     538.755    -398.777
  H       27.037     536.394    -402.748
  H       28.438     537.283    -403.293
  H       27.044     538.140    -402.681

 6  7  8  9  10  11  12  13  14  15  26  29  33  34 0
 6-311+G(2d,p)
 ****
 36  38  39  40  41 0
 6-311+G(2d,p)
 ****
 1  2  3  4  5  16  17  18  19  20  21  22  23  24  25 0
 3-21G
 ****
 27  28  30  31  32  35  37  42  43  44  45  46  47 0
 3-21G
 ****
 48  49 0
 3-21G
 ****


