%nproc=1
%NoSave
%Mem=1900MB
#P OB98/GEN NMR

erre ene a

0 1
  C      433.610     -42.329      95.989
  O      434.362     -43.303      95.295
  H      434.206     -41.416      96.075
  H      433.386     -42.696      96.996
  H      432.682     -42.099      95.463
  P      433.565     -44.564      94.707
  C      431.636     -43.910      93.093
  O      433.031     -44.136      93.252
  C      431.313     -43.586      91.633
  O      432.007     -42.353      91.266
  C      431.735     -44.679      90.636
  O      430.760     -44.757      89.589
  C      433.019     -44.114      90.051
  O      433.317     -44.661      88.765
  C      432.693     -42.625      90.027
  N      436.078     -41.057      86.662
  C      434.861     -41.698      86.485
  N      434.518     -42.029      85.220
  N      434.052     -41.994      87.467
  C      434.506     -41.586      88.678
  C      435.687     -40.951      88.984
  C      436.586     -40.647      87.890
  O      437.678     -40.098      87.983
  N      435.809     -40.769      90.345
  C      434.714     -41.309      90.857
  N      433.896     -41.822      89.884
  O      432.237     -44.591      95.605
  O      434.296     -45.864      94.759
  H      432.642     -44.343      88.138
  H      432.358     -45.204      96.355
  H      436.670     -40.871      85.871
  H      434.478     -41.373      91.909
  H      432.024     -42.354      89.198
  H      433.866     -44.323      90.719
  H      435.077     -41.810      84.409
  H      431.877     -45.669      91.091
  H      433.616     -42.462      85.071
  H      430.238     -43.387      91.553
  H      431.332     -43.067      93.723
  H      431.090     -44.805      93.418
  P      429.966     -46.136      89.396
  C      428.169     -47.409      90.789
  O      428.721     -46.158      90.404
  O      430.966     -47.215      90.031
  O      429.646     -46.452      87.976
  H      430.900     -48.056      89.540
  H      427.351     -47.247      91.460
  H      428.920     -47.995      91.277
  H      427.820     -47.927      89.920

 6  7  8  9  10  11  12  13  14  15  26  29  33  34 0
 6-311+G(2d,p)
 ****
 36  38  39  40  41 0
 6-311+G(2d,p)
 ****
 1  2  3  4  5  16  17  18  19  20  21  22  23  24  25 0
 3-21G
 ****
 27  28  30  31  32  35  37  42  43  44  45  46  47 0
 3-21G
 ****
 48  49 0
 3-21G
 ****


