%nproc=1
%NoSave
%Mem=1900MB
#P OB98/GEN NMR

erre ene a

0 1
  C     -899.350    -316.708    -390.067
  O     -898.040    -317.163    -390.205
  H     -900.000    -317.552    -389.813
  H     -899.710    -316.271    -391.002
  H     -899.420    -315.963    -389.257
  P     -896.910    -316.056    -390.558
  C     -896.100    -315.883    -388.086
  O     -896.670    -315.216    -389.214
  C     -894.720    -315.297    -387.790
  O     -894.810    -313.857    -387.655
  C     -894.110    -315.781    -386.491
  O     -893.550    -317.099    -386.595
  C     -893.090    -314.710    -386.200
  O     -891.870    -314.944    -386.934
  C     -893.780    -313.445    -386.750
  N     -892.760    -309.879    -383.225
  C     -892.000    -310.427    -384.233
  N     -892.360    -311.359    -385.120
  C     -893.640    -311.709    -384.941
  C     -894.540    -311.235    -383.991
  C     -894.050    -310.274    -383.110
  N     -894.800    -309.743    -382.092
  N     -895.740    -311.889    -384.113
  C     -895.600    -312.700    -385.126
  N     -894.350    -312.648    -385.666
  O     -897.710    -315.047    -391.514
  O     -895.680    -316.590    -391.208
  H     -891.290    -314.186    -386.763
  H     -897.490    -315.221    -392.439
  H     -890.990    -310.044    -384.275
  H     -896.370    -313.383    -385.492
  H     -893.090    -312.796    -387.296
  H     -892.840    -314.648    -385.142
  H     -894.880    -315.764    -385.679
  H     -894.070    -315.519    -388.637
  H     -896.000    -316.966    -388.316
  H     -896.770    -315.766    -387.233
  H     -894.370    -309.101    -381.445
  H     -895.730    -310.128    -381.914
  P     -894.420    -318.335    -386.046
  C     -894.170    -319.475    -388.381
  O     -895.040    -319.064    -387.328
  O     -895.710    -317.638    -385.375
  O     -893.710    -319.214    -385.090
  H     -895.990    -318.152    -384.598
  H     -894.743    -319.942    -389.155
  H     -893.452    -320.170    -387.999
  H     -893.663    -318.621    -388.779

 6  7  8  9  10  11  12  13  14  15  25  28  32  33  34  35 0
 6-311+G(2d,p)
 ****
 36  37  40 0
 6-311+G(2d,p)
 ****
 1  2  3  4  5  16  17  18  19  20  21  22  23  24 0
 3-21G
 ****
 26  27  29  30  31  38  39 41  42  43  44  45  46  47  48 0
 3-21G
 ****


