%nproc=1
%NoSave
%Mem=1900MB
#P OB98/GEN NMR

erre ene a

0 1
  C      146.527     -97.281     -46.161
  O      147.813     -97.830     -46.358
  H      145.971     -97.353     -47.101
  H      146.604     -96.227     -45.883
  H      145.982     -97.830     -45.390
  P      148.780     -98.002     -45.091
  C      149.566     -96.509     -43.142
  O      148.910     -96.560     -44.404
  C      149.807     -95.057     -42.740
  O      150.889     -94.501     -43.521
  C      148.615     -94.143     -42.991
  O      147.600     -94.333     -42.023
  C      149.287     -92.782     -42.965
  O      149.472     -92.321     -41.621
  C      150.648     -93.080     -43.631
  N      150.683     -92.645     -45.027
  C      150.644     -91.272     -45.244
  O      150.595     -90.441     -44.339
  N      150.602     -90.878     -46.555
  C      150.455     -91.706     -47.631
  O      150.173     -91.305     -48.755
  C      150.565     -93.145     -47.346
  C      150.660     -93.543     -46.076
  O      150.073     -98.700     -45.354
  O      147.882     -98.816     -44.041
  H      148.155     -99.752     -44.045
  H      149.919     -91.452     -41.695
  H      150.532     -89.882     -46.719
  H      150.525     -93.833     -48.182
  H      150.707     -94.602     -45.838
  H      151.459     -92.578     -43.089
  H      148.697     -92.032     -43.494
  H      148.216     -94.322     -43.996
  H      150.102     -95.034     -41.683
  H      150.527     -97.029     -43.225
  H      148.947     -97.021     -42.398
  P      146.113     -94.714     -42.475
  C      144.149     -93.580     -43.688
  O      145.403     -93.390     -43.039
  O      145.315     -95.470     -41.466
  O      146.323     -95.590     -43.800
  H      145.806     -96.415     -43.718
  H      143.773     -92.635     -44.020
  H      143.455     -94.019     -43.002
  H      144.277     -94.229     -44.529

 6  7  8  9  10  11  12  13  14  15  16  27  31  32  33  34  35 0
 6-311+G(2d,p)
 ****
 36  37 0
 6-311+G(2d,p)
 ****
 1  2  3  4  5  17  18  19  20  21  22  23  24  25 0
 3-21G
 ****
 26  28  29  30  38  39  40  41  42  43  44  45 0
 3-21G
 ****


