%nproc=1
%NoSave
%Mem=1900MB
#P OB98/GEN NMR

erre ene a

0 1
  C     -366.789     814.909    -126.196
  O     -366.246     815.438    -127.381
  H     -367.643     815.526    -125.888
  H     -366.041     814.931    -125.394
  H     -367.139     813.884    -126.346
  P     -365.000     814.636    -128.015
  C     -362.505     814.517    -127.256
  O     -363.879     814.565    -126.863
  C     -361.622     814.294    -126.033
  O     -361.539     815.521    -125.271
  C     -362.165     813.256    -125.064
  O     -361.890     811.925    -125.504
  C     -361.422     813.622    -123.781
  O     -360.108     813.066    -123.745
  C     -361.339     815.148    -123.880
  N     -362.640     816.224    -119.062
  C     -361.559     815.605    -119.590
  N     -361.284     815.371    -120.897
  C     -362.256     815.866    -121.688
  C     -363.413     816.522    -121.282
  C     -363.583     816.693    -119.902
  N     -364.713     817.293    -119.359
  N     -364.195     816.841    -122.388
  C     -363.508     816.405    -123.421
  N     -362.325     815.807    -123.045
  O     -364.395     815.690    -129.069
  O     -365.339     813.331    -128.662
  H     -359.688     813.279    -124.604
  H     -364.760     815.516    -129.953
  H     -360.822     815.240    -118.883
  H     -363.821     816.479    -124.461
  H     -360.359     815.531    -123.583
  H     -361.963     813.259    -122.899
  H     -363.246     813.374    -124.914
  H     -360.618     814.039    -126.372
  H     -362.237     815.473    -127.721
  H     -362.374     813.705    -127.986
  H     -364.776     817.364    -118.363
  H     -365.466     817.549    -119.974
  P     -362.925     810.765    -125.129
  C     -362.717     808.403    -124.023
  O     -362.160     809.710    -124.203
  O     -363.126     809.969    -126.514
  O     -364.233     811.243    -124.575
  H     -363.946     810.248    -126.943
  H     -362.082     807.830    -123.379
  H     -362.796     807.915    -124.972
  H     -363.689     808.487    -123.583

 6  7  8  9  10  11  12  13  14  15  25  28  32  33  34  35 0
 6-311+G(2d,p)
 ****
 36  37  40 0
 6-311+G(2d,p)
 ****
 1  2  3  4  5  16  17  18  19  20  21  22  23  24 0
 3-21G
 ****
 26  27  29  30  31  38  39 41  42  43  44  45  46  47  48 0
 3-21G
 ****


