%nproc=1
%NoSave
%Mem=1900MB
#P OB98/GEN NMR

erre ene a

0 1
  C      -86.860      -9.289     -25.282
  O      -88.128      -8.748     -24.978
  H      -86.455      -8.768     -26.154
  H      -86.958     -10.349     -25.528
  H      -86.165      -9.163     -24.448
  P      -88.823      -9.130     -23.586
  C      -90.133      -6.949     -23.146
  O      -90.203      -8.313     -23.541
  C      -90.103      -6.046     -24.379
  O      -91.310      -6.298     -25.161
  C      -90.073      -4.542     -24.037
  O      -89.301      -3.863     -25.034
  C      -91.537      -4.173     -24.174
  O      -91.719      -2.791     -24.348
  C      -91.945      -5.025     -25.373
  N      -93.396      -5.135     -25.484
  C      -94.092      -3.972     -25.794
  O      -93.554      -2.879     -25.963
  N      -95.456      -4.082     -25.831
  C      -96.176      -5.188     -25.489
  O      -97.398      -5.208     -25.464
  C      -95.387      -6.375     -25.117
  C      -94.055      -6.297     -25.139
  O      -87.972      -8.983     -22.368
  O      -89.330     -10.634     -23.797
  H      -92.615      -2.612     -24.688
  H      -89.464     -11.071     -22.934
  H      -95.974      -3.250     -26.064
  H      -95.928      -7.263     -24.824
  H      -93.442      -7.145     -24.853
  H      -91.545      -4.606     -26.305
  H      -92.086      -4.473     -23.275
  H      -89.669      -4.333     -23.044
  H      -89.250      -6.324     -25.009
  H      -89.218      -6.811     -22.559
  H      -90.999      -6.706     -22.522
  P      -87.707      -3.720     -24.917
  C      -86.779      -3.937     -27.301
  O      -87.102      -3.039     -26.244
  O      -87.008      -4.977     -24.508
  O      -87.495      -2.592     -23.798
  H      -86.805      -2.888     -23.173
  H      -86.387      -3.386     -28.130
  H      -87.661      -4.461     -27.606
  H      -86.046      -4.639     -26.961

 6  7  8  9  10  11  12  13  14  15  16  26  31  32  33  34  35 0
 6-311+G(2d,p)
 ****
 36  37 0
 6-311+G(2d,p)
 ****
 1  2  3  4  5  17  18  19  20  21  22  23  24  25 0
 3-21G
 ****
 27  28  29  30  38  39  40  41  42  43  44  45 0
 3-21G
 ****


