%nproc=1
%NoSave
%Mem=1900MB
#P OB98/GEN NMR

erre ene a

0 1
  C      154.305    -249.593     -86.582
  O      154.186    -250.894     -86.011
  P      155.394    -251.908     -85.780
  C      154.224    -253.807     -84.387
  O      154.799    -253.382     -85.616
  C      152.767    -253.333     -84.265
  O      152.034    -253.766     -85.452
  C      152.053    -253.934     -83.050
  O      151.234    -253.002     -82.352
  C      151.369    -255.159     -83.630
  O      150.300    -255.642     -82.832
  C      150.999    -254.682     -85.032
  N      147.913    -258.184     -87.101
  C      147.693    -257.354     -86.021
  N      146.505    -257.477     -85.393
  N      148.568    -256.489     -85.581
  C      149.744    -256.521     -86.248
  C      150.087    -257.309     -87.323
  C      149.092    -258.228     -87.834
  O      149.228    -258.970     -88.800
  N      151.369    -257.054     -87.739
  C      151.807    -256.131     -86.908
  N      150.851    -255.768     -85.986
  O      156.422    -251.483     -84.785
  O      156.117    -251.976     -87.221
  H      149.576    -254.989     -82.877
  H      157.067    -252.122     -87.045
  H      147.194    -258.815     -87.411
  H      152.793    -255.681     -86.934
  H      150.049    -254.142     -85.045
  H      152.116    -255.961     -83.684
  H      145.838    -258.203     -85.601
  H      152.778    -254.252     -82.291
  H      146.438    -257.030     -84.478
  H      152.755    -252.238     -84.239
  H      154.831    -253.352     -83.597
  H      154.298    -254.890     -84.278
  P      151.559    -252.195     -81.013
  C      150.268    -250.102     -81.743
  O      150.394    -251.122     -80.770
  O      152.819    -251.279     -81.375
  O      151.866    -253.050     -79.827
  H      153.576    -251.521     -80.807
  H      149.639    -249.305     -81.337
  H      149.792    -250.507     -82.641
  H      151.246    -249.688     -82.001
  H      153.341    -249.130     -86.619
  H      154.701    -249.673     -87.573
  H      154.963    -248.999     -85.982

 3  4  5  6  7  8  9  10  11  12  23  26  30  31 0
 6-311+G(2d,p)
 ****
 33  35  36  37  38 0
 6-311+G(2d,p)
 ****
 1  2  13  14  15  16  17  18  19  20  21  22  24  25 0
 3-21G
 ****
 27  28  29  32  34  39  40  41  42  43  44  45  46  47  48  49 0
 3-21G
 ****


