%nproc=1
%NoSave
%Mem=1900MB
#P OB98/GEN NMR

erre ene a

0 1
  C       64.892      17.549      50.739
  O       65.168      17.236      52.089
  P       66.306      16.180      52.490
  C       66.513      13.618      52.446
  O       65.648      14.730      52.282
  C       65.776      12.298      52.213
  O       65.084      12.348      50.935
  C       66.677      11.056      52.203
  O       65.900       9.992      52.760
  C       66.904      10.830      50.721
  O       67.339       9.509      50.428
  C       65.532      11.218      50.156
  N       65.593      11.520      48.731
  C       66.056      10.503      47.892
  O       66.462       9.442      48.370
  N       66.101      10.728      46.540
  C       65.809      11.904      46.078
  N       65.866      12.068      44.729
  C       65.437      13.041      46.940
  C       65.336      12.778      48.241
  O       66.933      16.399      53.825
  O       67.344      16.265      51.276
  H       68.115       9.306      50.995
  H       67.904      17.076      51.358
  H       65.258      14.017      46.515
  H       65.068      13.548      48.951
  H       64.808      10.407      50.308
  H       67.674      11.522      50.357
  H       67.609      11.187      52.757
  H       65.010      12.198      52.991
  H       66.111      11.257      44.174
  H       66.890      13.631      53.473
  H       65.580      12.914      44.263
  H       67.372      13.709      51.774
  P       66.518       8.988      53.845
  C       68.191       7.053      53.800
  O       67.713       8.203      53.128
  O       65.523       8.119      54.542
  O       67.281       9.946      54.881
  H       67.468       9.452      55.701
  H       68.787       6.455      53.105
  H       67.362       6.443      54.173
  H       68.822       7.356      54.641
  H       64.103      18.270      50.694
  H       64.594      16.662      50.221
  H       65.770      17.952      50.280

 3  4  5  6  7  8  9  10  11  12  13  23  27  28  29  30  32 0
 6-311+G(2d,p)
 ****
 34  35 0
 6-311+G(2d,p)
 ****
 1  2  14  15  16  17  18  19  20  21  22  24  25  26 0
 3-21G
 ****
 31  33  36  37  38  39  40  41  42  43  44  45  46 0
 3-21G
 ****


