%nproc=1
%NoSave
%Mem=1900MB
#P OB98/GEN NMR

erre ene a

0 1
  C      -66.638     363.975     108.865
  O      -66.429     363.111     109.963
  H      -66.680     363.397     107.934
  H      -67.591     364.493     108.997
  H      -65.837     364.718     108.807
  P      -65.078     362.243     109.935
  C      -65.866     360.186     108.573
  O      -65.107     361.384     108.574
  C      -65.458     359.301     107.393
  O      -64.095     358.852     107.615
  C      -66.347     358.059     107.201
  O      -66.779     357.958     105.837
  C      -65.421     356.889     107.502
  O      -65.698     355.746     106.707
  C      -64.042     357.475     107.218
  N      -61.844     352.922     107.864
  C      -62.589     353.418     106.850
  N      -63.057     354.674     106.689
  C      -62.662     355.462     107.712
  C      -61.888     355.102     108.801
  C      -61.485     353.762     108.867
  N      -60.775     353.239     109.929
  N      -61.700     356.182     109.646
  C      -62.392     357.166     109.093
  N      -63.002     356.772     107.929
  O      -65.328     361.144     111.078
  O      -63.832     363.023     110.187
  H      -64.991     355.096     106.885
  H      -64.644     361.253     111.766
  H      -62.843     352.715     106.062
  H      -62.512     358.160     109.511
  H      -63.799     357.448     106.144
  H      -65.524     356.619     108.557
  H      -67.217     358.058     107.861
  H      -65.453     359.917     106.482
  H      -66.940     360.424     108.484
  H      -60.632     352.241     109.956
  H      -60.612     353.829     110.732
  H      -65.702     359.661     109.522
  P      -68.298     358.412     105.543
  C      -69.349     356.040     105.825
  O      -69.282     357.389     106.306
  O      -68.492     358.054     103.993
  O      -68.558     359.857     105.808
  H      -68.765     358.852     103.500
  H      -70.037     355.481     106.424
  H      -68.379     355.592     105.884
  H      -69.680     356.040     104.808

 6  7  8  9  10  11  12  13  14  15  25  28  32  33  34  35 0
 6-311+G(2d,p)
 ****
 36  39  40 0
 6-311+G(2d,p)
 ****
 1  2  3  4  5  16  17  18  19  20  21  22  23  24 0
 3-21G
 ****
 26  27  29  30  31  37  38  41  42  43  44  45  46  47  48 0
 3-21G
 ****


