%nproc=1
%NoSave
%Mem=1900MB
#P OB98/GEN NMR

erre ene a

0 1
  C      266.527     224.189     295.941
  O      265.186     224.123     296.375
  H      266.569     223.909     294.886
  H      267.141     223.488     296.513
  H      266.923     225.202     296.049
  P      264.818     224.661     297.839
  C      264.191     226.943     298.870
  O      264.633     226.248     297.714
  C      263.255     228.096     298.487
  O      263.907     228.904     297.459
  C      261.898     227.641     297.909
  O      260.937     228.649     298.255
  C      262.202     227.656     296.422
  O      261.046     227.537     295.630
  C      262.998     228.968     296.339
  N      263.726     229.180     295.096
  C      263.227     230.126     294.205
  O      262.214     230.797     294.397
  N      263.940     230.285     293.045
  C      265.080     229.622     292.704
  O      265.691     229.831     291.662
  C      265.556     228.631     293.679
  C      264.873     228.461     294.814
  O      265.721     224.214     298.940
  O      263.316     224.146     298.063
  H      263.324     223.360     298.641
  H      260.353     228.133     295.986
  H      263.592     230.973     292.390
  H      266.452     228.077     293.437
  H      265.205     227.743     295.560
  H      262.332     229.818     296.514
  H      262.832     226.801     296.159
  H      261.568     226.674     298.294
  H      263.116     228.743     299.360
  H      265.072     227.342     299.385
  H      263.676     226.246     299.536
  P      259.902     228.501     299.472
  C      260.181     227.755     301.940
  O      260.749     228.467     300.842
  O      258.951     227.361     299.327
  O      259.123     229.897     299.539
  H      258.244     229.765     299.938
  H      260.840     227.811     302.781
  H      260.039     226.731     301.666
  H      259.238     228.190     302.197

 6  7  8  9  10  11  12  13  14  15  16  27  31  32  33  34  35 0
 6-311+G(2d,p)
 ****
 36  37 0
 6-311+G(2d,p)
 ****
 1  2  3  4  5  17  18  19  20  21  22  23  24  25 0
 3-21G
 ****
 26  28  29  30  38  39  40  41  42  43  44  45 0
 3-21G
 ****


