%nproc=1
%NoSave
%Mem=1900MB
#P OB98/GEN NMR

erre ene a

0 1
  C       51.179     124.451    -188.219
  O       50.588     125.687    -188.562
  H       50.594     123.648    -188.673
  H       51.180     124.314    -187.135
  H       52.202     124.397    -188.602
  P       51.219     127.034    -187.965
  C       51.845     127.808    -190.346
  O       51.167     128.130    -189.136
  C       51.110     128.424    -191.542
  O       49.915     127.640    -191.778
  C       50.689     129.879    -191.287
  O       51.124     130.775    -192.307
  C       49.189     129.770    -191.035
  O       48.454     130.937    -191.337
  C       48.790     128.534    -191.852
  N       47.575     127.877    -191.371
  C       46.534     127.721    -192.279
  O       46.562     128.071    -193.458
  N       45.406     127.116    -191.787
  C       45.224     126.671    -190.513
  O       44.191     126.132    -190.131
  C       46.351     126.886    -189.592
  C       47.459     127.470    -190.058
  O       52.550     126.889    -187.305
  O       50.109     127.557    -186.935
  H       48.769     131.649    -190.742
  H       50.385     127.348    -186.024
  H       44.648     126.988    -192.438
  H       46.237     126.554    -188.571
  H       48.311     127.640    -189.407
  H       48.633     128.801    -192.896
  H       49.035     129.561    -189.969
  H       51.172     130.272    -190.385
  H       51.746     128.334    -192.430
  H       51.870     126.717    -190.439
  H       52.871     128.186    -190.306
  P       51.057     132.366    -192.208
  C       53.421     132.678    -193.301
  O       52.031     132.977    -193.321
  O       51.161     132.931    -190.833
  O       49.582     132.710    -192.766
  H       49.277     133.505    -192.281
  H       53.904     133.173    -194.117
  H       53.560     131.621    -193.393
  H       53.845     133.015    -192.378

 6  7  8  9  10  11  12  13  14  15  16  26  31  32  33  34  35 0
 6-311+G(2d,p)
 ****
 36  37 0
 6-311+G(2d,p)
 ****
 1  2  3  4  5  17  18  19  20  21  22  23  24  25 0
 3-21G
 ****
 27  28  29  30  38  39  40  41  42  43  44  45 0
 3-21G
 ****


