%nproc=1
%NoSave
%Mem=1900MB
#P OB98/GEN NMR

erre ene a

0 1
  C        0.898    -388.687     199.071
  O        1.255    -389.654     198.106
  P        2.134    -390.922     198.531
  C        1.368    -391.708     196.207
  O        2.358    -391.826     197.225
  C        1.703    -392.627     195.033
  O        1.741    -394.002     195.464
  C        0.685    -392.580     193.898
  O        0.848    -391.408     193.122
  C        1.003    -393.879     193.166
  O        2.129    -393.705     192.288
  C        1.364    -394.816     194.329
  N       -1.356    -398.877     192.871
  C       -0.439    -398.127     192.224
  N        0.216    -397.035     192.669
  C       -0.182    -396.720     193.914
  C       -1.133    -397.369     194.687
  C       -1.720    -398.515     194.127
  N       -2.614    -399.323     194.802
  N       -1.287    -396.724     195.902
  C       -0.452    -395.704     195.854
  N        0.281    -395.699     194.704
  O        1.656    -391.658     199.738
  O        3.590    -390.302     198.789
  H        2.424    -394.595     192.018
  H        3.849    -390.463     199.715
  H       -0.191    -398.454     191.220
  H       -0.332    -394.963     196.629
  H        2.233    -395.446     194.091
  H        0.167    -394.232     192.557
  H       -0.331    -392.635     194.310
  H        2.706    -392.357     194.668
  H        1.344    -390.667     195.868
  H       -2.859    -400.197     194.361
  H       -2.659    -399.246     195.813
  H        0.389    -391.967     196.625
  P       -0.439    -390.652     192.540
  C        0.968    -388.514     192.681
  O        0.077    -389.280     191.896
  O       -1.592    -390.521     193.484
  O       -0.835    -391.527     191.257
  H       -1.801    -391.494     191.133
  H        0.407    -387.976     193.450
  H        1.467    -387.788     192.034
  H        1.719    -389.152     193.152
  H        0.315    -387.919     198.607
  H        1.784    -388.258     199.491
  H        0.324    -389.151     199.846

 3  4  5  6  7  8  9  10  11  12  22  25  29  30  31  32 0
 6-311+G(2d,p)
 ****
 33  36  37 0
 6-311+G(2d,p)
 ****
 1  2  13  14  15  16  17  18  19  20  21  23  24  26 0
 3-21G
 ****
 27  28  34  35  38  39  40  41  42  43  44  45  46  47  48 0
 3-21G
 ****


