%nproc=1
%NoSave
%Mem=1900MB
#P OB98/GEN NMR

erre ene a

0 1
  C      -12.704      -9.309     -29.711
  O      -11.863      -8.855     -28.670
  H      -13.716      -8.941     -29.530
  H      -12.723     -10.402     -29.718
  H      -12.361      -8.936     -30.680
  P      -10.281      -8.997     -28.903
  C      -10.205     -10.819     -27.057
  O       -9.673      -9.597     -27.544
  C       -9.441     -11.273     -25.818
  O      -10.008     -12.493     -25.295
  C       -7.962     -11.558     -26.061
  O       -7.186     -10.368     -26.015
  C       -7.650     -12.457     -24.877
  O       -7.511     -11.658     -23.683
  C       -8.920     -13.315     -24.786
  N       -7.321     -18.127     -24.819
  C       -7.124     -17.135     -23.878
  N       -6.390     -17.471     -22.796
  N       -7.599     -15.921     -23.988
  C       -8.293     -15.722     -25.133
  C       -8.549     -16.622     -26.142
  C       -8.033     -17.963     -26.000
  O       -8.188     -18.882     -26.800
  N       -9.287     -16.056     -27.148
  C       -9.457     -14.808     -26.759
  N       -8.871     -14.554     -25.544
  O       -9.787      -7.473     -28.902
  O       -9.883      -9.695     -30.159
  H       -6.989     -10.872     -23.925
  H       -9.630      -7.192     -29.823
  H       -6.924     -19.041     -24.690
  H      -10.001     -14.056     -27.312
  H       -9.166     -13.584     -23.754
  H       -6.716     -13.008     -25.001
  H       -5.977     -18.379     -22.659
  H       -7.803     -12.110     -26.995
  H       -6.237     -16.760     -22.092
  H       -9.564     -10.501     -25.048
  H      -10.120     -11.582     -27.838
  H      -11.262     -10.674     -26.811
  P       -6.160     -10.085     -27.214
  C       -5.078     -12.441     -27.226
  O       -4.898     -11.052     -26.988
  O       -5.589      -8.634     -26.852
  O       -6.754     -10.111     -28.580
  H       -5.906      -7.980     -27.505
  H       -4.160     -12.957     -27.036
  H       -5.369     -12.594     -28.244
  H       -5.840     -12.818     -26.577

 6  7  8  9  10  11  12  13  14  15  26  29  33  34 0
 6-311+G(2d,p)
 ****
 36  38  39  40  41 0
 6-311+G(2d,p)
 ****
 1  2  3  4  5  16  17  18  19  20  21  22  23  24  25 0
 3-21G
 ****
 27  28  30  31  32  35  37  42  43  44  45  46  47 0
 3-21G
 ****
 48  49 0
 3-21G
 ****


