%nproc=1
%NoSave
%Mem=1900MB
#P OB98/GEN NMR

erre ene a

0 1
  C     -352.393    -111.837    -121.498
  O     -352.966    -113.099    -121.127
  P     -354.163    -113.202    -120.053
  C     -352.566    -113.887    -118.162
  O     -353.768    -114.211    -118.865
  C     -351.929    -115.106    -117.460
  O     -352.959    -115.923    -116.811
  C     -351.141    -116.051    -118.381
  O     -350.098    -116.603    -117.565
  C     -352.177    -117.113    -118.716
  O     -351.602    -118.319    -119.199
  C     -352.888    -117.247    -117.373
  N     -355.805    -121.344    -116.336
  C     -354.565    -120.978    -115.909
  N     -353.877    -119.870    -116.196
  C     -354.594    -119.042    -116.990
  C     -355.870    -119.264    -117.496
  C     -356.477    -120.483    -117.144
  N     -357.715    -120.875    -117.623
  N     -356.274    -118.210    -118.292
  C     -355.255    -117.363    -118.275
  N     -354.216    -117.822    -117.499
  O     -355.501    -113.476    -120.662
  O     -354.181    -111.766    -119.341
  H     -350.791    -118.503    -118.688
  H     -355.097    -111.448    -119.277
  H     -354.071    -121.700    -115.264
  H     -355.202    -116.430    -118.811
  H     -352.308    -117.880    -116.680
  H     -352.845    -116.729    -119.505
  H     -350.725    -115.554    -119.255
  H     -351.289    -114.723    -116.658
  H     -352.789    -113.116    -117.420
  H     -358.027    -121.808    -117.392
  H     -358.171    -120.311    -118.321
  H     -351.844    -113.465    -118.873
  P     -348.546    -116.247    -117.821
  C     -348.027    -118.758    -117.987
  O     -347.707    -117.537    -117.346
  O     -348.093    -114.947    -117.245
  O     -348.391    -116.276    -119.418
  H     -347.585    -115.796    -119.668
  H     -348.965    -119.155    -117.561
  H     -347.222    -119.475    -117.792
  H     -348.155    -118.625    -119.066
  H     -351.619    -111.995    -122.219
  H     -351.982    -111.363    -120.631
  H     -353.151    -111.211    -121.920

 3  4  5  6  7  8  9  10  11  12  22  25  29  30  31  32 0
 6-311+G(2d,p)
 ****
 33  36  37 0
 6-311+G(2d,p)
 ****
 1  2  13  14  15  16  17  18  19  20  21  23  24  26 0
 3-21G
 ****
 27  28  34  35  38  39  40  41  42  43  44  45  46  47  48 0
 3-21G
 ****


