%nproc=1
%NoSave
%Mem=1900MB
#P OB98/GEN NMR

erre ene a

0 1
  C      -51.761     -33.166    -174.212
  O      -52.171     -31.834    -174.452
  H      -52.283     -33.542    -173.329
  H      -50.683     -33.201    -174.027
  H      -52.012     -33.799    -175.069
  P      -51.464     -31.083    -175.682
  C      -49.723     -30.227    -173.962
  O      -49.944     -30.818    -175.234
  C      -48.333     -30.587    -173.442
  O      -48.296     -31.957    -172.990
  C      -47.216     -30.432    -174.470
  O      -46.771     -29.088    -174.533
  C      -46.163     -31.376    -173.906
  O      -45.433     -30.752    -172.826
  C      -47.020     -32.537    -173.381
  N      -44.774     -36.193    -176.046
  C      -44.229     -35.221    -175.228
  N      -42.881     -35.203    -175.123
  N      -44.938     -34.337    -174.578
  C      -46.268     -34.438    -174.820
  C      -46.927     -35.351    -175.609
  C      -46.134     -36.357    -176.280
  O      -46.563     -37.292    -176.952
  N      -48.284     -35.138    -175.587
  C      -48.435     -34.079    -174.813
  N      -47.241     -33.614    -174.329
  O      -52.117     -29.618    -175.650
  O      -51.645     -31.724    -177.016
  H      -44.894     -30.027    -173.184
  H      -52.249     -29.315    -176.568
  H      -44.181     -36.866    -176.498
  H      -49.385     -33.619    -174.569
  H      -46.583     -32.994    -172.486
  H      -45.423     -31.648    -174.660
  H      -42.285     -35.649    -175.806
  H      -47.536     -30.791    -175.454
  H      -42.482     -34.446    -174.583
  H      -48.138     -29.954    -172.563
  H      -50.479     -30.599    -173.262
  H      -49.816     -29.140    -174.048
  P      -46.135     -28.566    -175.909
  C      -43.674     -29.249    -175.431
  O      -44.835     -29.457    -176.225
  O      -45.524     -27.141    -175.502
  O      -47.106     -28.430    -177.033
  H      -46.090     -26.426    -175.855
  H      -42.897     -29.909    -175.756
  H      -43.904     -29.447    -174.405
  H      -43.348     -28.235    -175.535

 6  7  8  9  10  11  12  13  14  15  26  29  33  34 0
 6-311+G(2d,p)
 ****
 36  38  39  40  41 0
 6-311+G(2d,p)
 ****
 1  2  3  4  5  16  17  18  19  20  21  22  23  24  25 0
 3-21G
 ****
 27  28  30  31  32  35  37  42  43  44  45  46  47 0
 3-21G
 ****
 48  49 0
 3-21G
 ****


