%nproc=1
%NoSave
%Mem=1900MB
#P OB98/GEN NMR

erre ene a

0 1
  C      -79.491     -78.236     -41.002
  O      -79.440     -76.810     -41.117
  P      -78.675     -76.195     -42.385
  C      -80.352     -74.336     -43.067
  O      -79.076     -74.648     -42.528
  C      -81.387     -74.102     -41.957
  O      -80.885     -73.157     -40.972
  C      -82.717     -73.541     -42.469
  O      -83.763     -74.006     -41.608
  C      -82.547     -72.049     -42.263
  O      -83.801     -71.368     -42.267
  C      -81.795     -72.039     -40.934
  N      -82.019     -67.508     -38.731
  C      -82.958     -68.519     -38.786
  N      -84.115     -68.303     -38.126
  N      -82.778     -69.644     -39.429
  C      -81.558     -69.732     -40.012
  C      -80.547     -68.799     -40.036
  C      -80.771     -67.551     -39.341
  O      -79.980     -66.615     -39.271
  N      -79.468     -69.249     -40.754
  C      -79.831     -70.448     -41.168
  N      -81.073     -70.800     -40.714
  O      -79.418     -76.888     -43.623
  O      -77.210     -76.483     -42.405
  H      -83.616     -70.414     -42.125
  H      -78.830     -77.548     -44.032
  H      -82.214     -66.659     -38.230
  H      -79.237     -71.097     -41.795
  H      -82.466     -72.173     -40.076
  H      -81.928     -71.630     -43.067
  H      -84.297     -67.482     -37.568
  H      -82.958     -73.801     -43.504
  H      -84.804     -69.045     -38.115
  H      -81.562     -75.051     -41.438
  H      -80.694     -75.146     -43.717
  H      -80.258     -73.458     -43.714
  P      -84.663     -75.216     -42.148
  C      -86.007     -76.114     -40.116
  O      -85.974     -75.241     -41.229
  O      -83.858     -76.520     -41.687
  O      -84.910     -75.201     -43.620
  H      -84.072     -77.272     -42.266
  H      -85.847     -75.534     -39.204
  H      -85.248     -76.898     -40.187
  H      -86.993     -76.585     -40.069
  H      -80.028     -78.503     -40.116
  H      -78.496     -78.625     -40.947
  H      -79.988     -78.645     -41.857

 3  4  5  6  7  8  9  10  11  12  23  26  30  31 0
 6-311+G(2d,p)
 ****
 33  35  36  37  38 0
 6-311+G(2d,p)
 ****
 1  2  13  14  15  16  17  18  19  20  21  22  24  25 0
 3-21G
 ****
 27  28  29  32  34  39  40  41  42  43  44  45  46  47  48  49 0
 3-21G
 ****


