%nproc=1
%NoSave
%Mem=1900MB
#P OB98/GEN NMR

erre ene a

0 1
  C      557.499      46.084      64.576
  O      558.840      46.485      64.793
  H      556.969      46.904      64.085
  H      557.011      45.870      65.530
  H      557.464      45.206      63.931
  P      559.803      45.408      65.491
  C      561.686      47.002      64.664
  O      561.220      46.132      65.690
  C      562.862      47.825      65.178
  O      563.969      46.951      65.501
  C      563.414      48.817      64.163
  O      562.620      49.985      64.069
  C      564.804      49.076      64.734
  O      564.776      50.063      65.770
  C      565.185      47.706      65.309
  N      568.837      44.132      65.148
  C      568.062      44.588      66.160
  N      567.094      45.533      66.120
  C      566.953      46.009      64.861
  C      567.674      45.644      63.738
  C      568.658      44.658      63.911
  N      569.471      44.214      62.892
  N      567.274      46.382      62.643
  C      566.321      47.168      63.100
  N      566.094      46.978      64.431
  O      560.074      44.351      64.312
  O      559.249      44.749      66.707
  H      564.334      50.846      65.385
  H      559.502      43.574      64.433
  H      568.229      44.125      67.130
  H      565.778      47.910      62.506
  H      565.681      47.789      66.289
  H      565.476      49.429      63.952
  H      563.512      48.337      63.182
  H      562.553      48.340      66.100
  H      560.875      47.682      64.367
  H      561.984      46.398      63.798
  H      570.204      43.552      63.105
  H      569.427      44.673      61.994
  P      562.437      50.641      62.618
  C      560.200      51.691      63.460
  O      561.428      51.886      62.782
  O      561.564      49.557      61.811
  O      563.709      50.965      61.907
  H      561.852      49.531      60.879
  H      559.654      52.611      63.480
  H      560.393      51.369      64.462
  H      559.626      50.946      62.950

 6  7  8  9  10  11  12  13  14  15  25  28  32  33  34  35 0
 6-311+G(2d,p)
 ****
 36  37  40 0
 6-311+G(2d,p)
 ****
 1  2  3  4  5  16  17  18  19  20  21  22  23  24 0
 3-21G
 ****
 26  27  29  30  31  38  39 41  42  43  44  45  46  47  48 0
 3-21G
 ****


