%nproc=1
%NoSave
%Mem=1900MB
#P OB98/GEN NMR

erre ene a

0 1
  C     1057.280    1196.498    -664.522
  O     1058.003    1196.732    -663.315
  P     1058.626    1195.557    -662.428
  C     1057.579    1196.001    -660.112
  O     1058.752    1196.046    -660.913
  C     1057.786    1196.592    -658.704
  O     1057.900    1198.017    -658.801
  C     1056.672    1196.306    -657.713
  O     1056.737    1194.990    -657.260
  C     1056.943    1197.379    -656.668
  O     1057.980    1196.969    -655.751
  C     1057.398    1198.550    -657.556
  N     1056.387    1199.557    -657.738
  C     1055.728    1200.072    -656.588
  O     1056.014    1199.591    -655.489
  N     1054.782    1201.017    -656.735
  C     1054.455    1201.424    -657.916
  N     1053.520    1202.443    -658.018
  C     1055.049    1200.900    -659.151
  C     1055.998    1199.978    -658.991
  O     1059.861    1194.951    -662.985
  O     1057.452    1194.447    -662.349
  H     1058.083    1197.734    -655.136
  H     1057.869    1193.567    -662.272
  H     1054.730    1201.230    -660.121
  H     1056.475    1199.520    -659.845
  H     1058.300    1199.030    -657.072
  H     1056.035    1197.630    -656.068
  H     1055.709    1196.482    -658.171
  H     1058.733    1196.187    -658.341
  H     1053.136    1202.790    -657.144
  H     1057.282    1194.938    -660.021
  H     1053.183    1202.804    -658.892
  H     1056.750    1196.515    -660.623
  P     1055.583    1193.932    -657.663
  C     1055.616    1192.625    -655.475
  O     1055.857    1192.585    -656.862
  O     1055.363    1193.778    -659.147
  O     1054.245    1194.521    -656.974
  H     1053.481    1194.279    -657.509
  H     1055.432    1191.599    -655.105
  H     1054.773    1193.239    -655.212
  H     1056.532    1193.002    -654.975
  H     1056.963    1197.433    -664.935
  H     1056.423    1195.892    -664.313
  H     1057.911    1195.993    -665.224

 3  4  5  6  7  8  9  10  11  12  13  23  27  28  29  30  32 0
 6-311+G(2d,p)
 ****
 34  35 0
 6-311+G(2d,p)
 ****
 1  2  14  15  16  17  18  19  20  21  22  24  25  26 0
 3-21G
 ****
 31  33  36  37  38  39  40  41  42  43  44  45  46 0
 3-21G
 ****


