%nproc=1
%NoSave
%Mem=1900MB
#P OB98/GEN NMR

erre ene a

0 1
  C      159.749     223.503     258.016
  O      158.600     222.934     258.614
  H      159.553     224.562     257.823
  H      159.973     223.005     257.069
  H      160.603     223.419     258.695
  P      158.669     221.365     258.951
  C      158.150     221.976     261.400
  O      157.762     221.203     260.268
  C      157.207     221.710     262.579
  O      155.879     222.163     262.215
  C      157.110     220.230     262.952
  O      157.021     220.110     264.373
  C      155.801     219.786     262.323
  O      155.227     218.660     262.987
  C      154.966     221.064     262.407
  N      149.993     220.279     261.573
  C      150.725     220.307     262.704
  N      152.051     220.540     262.837
  C      152.607     220.811     261.647
  C      151.991     220.818     260.404
  C      150.615     220.528     260.394
  N      149.867     220.474     259.241
  N      152.909     221.098     259.407
  C      154.060     221.266     260.039
  N      153.928     221.090     261.389
  O      160.035     220.780     259.037
  O      157.727     220.751     257.810
  H      155.832     217.899     262.868
  H      156.913     221.272     257.696
  H      150.180     220.109     263.623
  H      155.008     221.507     259.565
  H      154.476     221.183     263.381
  H      155.971     219.504     261.274
  H      157.954     219.646     262.585
  H      157.530     222.319     263.431
  H      158.131     223.043     261.149
  H      148.879     220.276     259.320
  H      150.306     220.673     258.353
  H      159.176     221.699     261.666
  P      158.181     219.319     265.148
  C      158.104     220.843     267.239
  O      157.963     219.518     266.730
  O      159.571     219.553     264.657
  O      157.752     217.783     264.942
  H      158.561     217.249     264.816
  H      157.935     220.839     268.296
  H      157.390     221.485     266.766
  H      159.092     221.199     267.037

 6  7  8  9  10  11  12  13  14  15  25  28  32  33  34  35 0
 6-311+G(2d,p)
 ****
 36  39  40 0
 6-311+G(2d,p)
 ****
 1  2  3  4  5  16  17  18  19  20  21  22  23  24 0
 3-21G
 ****
 26  27  29  30  31  37  38  41  42  43  44  45  46  47 0
 3-21G
 ****
 48 0
 3-21G
 ****


