%nproc=1
%NoSave
%Mem=1900MB
#P OB98/GEN NMR

erre ene a

0 1
  C      193.900     487.158     201.393
  O      195.064     487.985     201.457
  P      195.431     488.926     200.215
  C      195.087     491.182     201.436
  O      194.672     490.330     200.373
  C      194.158     492.397     201.524
  O      192.789     492.000     201.787
  C      194.513     493.331     202.678
  O      195.716     494.058     202.552
  C      193.232     494.128     202.854
  O      193.152     495.212     201.931
  C      192.157     493.059     202.537
  N      191.501     492.544     203.739
  C      190.319     493.177     204.106
  O      189.854     494.143     203.509
  N      189.701     492.680     205.223
  C      190.157     491.660     206.007
  O      189.576     491.270     207.009
  C      191.425     491.047     205.578
  C      192.029     491.507     204.480
  O      195.327     488.295     198.869
  O      196.959     489.330     200.522
  H      192.281     495.632     202.049
  H      197.445     489.310     199.676
  H      188.838     493.123     205.502
  H      191.821     490.236     206.176
  H      192.964     491.067     204.147
  H      191.380     493.483     201.886
  H      193.162     494.555     203.862
  H      194.633     492.718     203.581
  H      194.172     492.918     200.569
  H      196.116     491.503     201.271
  H      195.086     490.608     202.371
  P      197.111     493.569     203.175
  C      197.813     492.507     200.916
  O      197.644     492.333     202.304
  O      197.192     493.447     204.662
  O      198.097     494.748     202.706
  H      198.782     494.869     203.390
  H      198.167     491.568     200.486
  H      198.557     493.283     200.716
  H      196.862     492.770     200.446
  H      193.808     486.600     202.302
  H      193.987     486.483     200.567
  H      193.033     487.772     201.262

 3  4  5  6  7  8  9  10  11  12  13  23  28  29  30  31  32 0
 6-311+G(2d,p)
 ****
 33  34 0
 6-311+G(2d,p)
 ****
 1  2  14  15  16  17  18  19  20  21  22  24  25  26  27 0
 3-21G
 ****
 35  36  37  38  39  40  41  42  43  44  45 0
 3-21G
 ****


