%nproc=1
%NoSave
%Mem=1900MB
#P OB98/GEN NMR

erre ene a

0 1
  C      880.771    -129.477     236.528
  O      879.807    -130.175     235.765
  H      880.277    -129.021     237.390
  H      881.215    -128.686     235.921
  H      881.551    -130.150     236.894
  P      880.302    -131.178     234.620
  C      879.616    -133.243     236.013
  O      879.445    -132.526     234.796
  C      878.368    -134.069     236.336
  O      877.317    -133.162     236.800
  C      877.803    -134.851     235.142
  O      877.199    -136.035     235.652
  C      876.750    -133.895     234.625
  O      875.829    -134.552     233.767
  C      876.176    -133.349     235.935
  N      875.416    -132.113     235.748
  C      874.053    -132.165     236.006
  O      873.477    -133.212     236.346
  N      873.353    -131.008     235.822
  C      873.867    -129.832     235.348
  O      873.186    -128.840     235.167
  C      875.316    -129.838     235.049
  C      876.016    -130.966     235.264
  O      881.778    -131.386     234.529
  O      879.703    -130.559     233.267
  H      876.249    -134.751     232.905
  H      880.282    -130.771     232.518
  H      872.368    -131.038     236.006
  H      875.750    -128.926     234.660
  H      877.080    -130.996     235.042
  H      875.515    -134.082     236.401
  H      877.205    -133.088     234.033
  H      878.560    -135.097     234.393
  H      878.600    -134.738     237.168
  H      879.800    -132.509     236.808
  H      880.486    -133.905     235.932
  P      876.696    -137.234     234.696
  C      878.423    -139.004     235.445
  O      877.042    -138.635     235.399
  O      877.181    -137.125     233.276
  O      875.098    -137.164     234.757
  H      874.726    -137.515     233.921
  H      878.523    -139.950     235.934
  H      878.972    -138.263     235.987
  H      878.807    -139.075     234.449

 6  7  8  9  10  11  12  13  14  15  16  26  31  32  33  34  35 0
 6-311+G(2d,p)
 ****
 36  37 0
 6-311+G(2d,p)
 ****
 1  2  3  4  5  17  18  19  20  21  22  23  24  25 0
 3-21G
 ****
 27  28  29  30  38  39  40  41  42  43  44  45 0
 3-21G
 ****


