%nproc=1
%NoSave
%Mem=1900MB
#P OB98/GEN NMR

erre ene a

0 1
  C      167.065    -640.095    -246.146
  O      165.836    -639.400    -246.210
  H      167.871    -639.371    -245.984
  H      167.255    -640.629    -247.080
  H      167.058    -640.800    -245.312
  P      164.506    -640.206    -246.599
  C      163.379    -640.019    -244.289
  O      163.333    -639.640    -245.662
  C      162.171    -639.465    -243.534
  O      162.366    -638.038    -243.335
  C      160.838    -639.667    -244.276
  O      159.828    -639.951    -243.301
  C      160.599    -638.313    -244.903
  O      159.226    -638.099    -245.180
  C      161.217    -637.356    -243.879
  N      161.575    -636.079    -244.498
  C      161.233    -634.924    -243.788
  O      160.660    -635.012    -242.700
  N      161.464    -633.702    -244.365
  C      161.960    -633.635    -245.562
  N      162.145    -632.389    -246.087
  C      162.320    -634.832    -246.360
  C      162.107    -636.010    -245.774
  O      164.624    -641.694    -246.619
  O      164.127    -639.633    -248.045
  H      158.692    -638.350    -244.400
  H      164.543    -640.173    -248.740
  H      162.717    -634.719    -247.356
  H      162.328    -636.938    -246.283
  H      160.510    -637.164    -243.057
  H      161.146    -638.249    -245.855
  H      160.879    -640.473    -245.019
  H      162.143    -639.925    -242.537
  H      161.857    -631.601    -245.512
  H      164.300    -639.610    -243.859
  H      162.471    -632.210    -247.019
  H      163.407    -641.114    -244.208
  P      158.980    -641.320    -243.373
  C      158.758    -641.575    -240.826
  O      158.057    -641.426    -242.058
  O      159.798    -642.539    -243.657
  O      157.920    -641.057    -244.544
  H      157.707    -641.905    -244.978
  H      158.056    -641.636    -240.021
  H      159.400    -640.732    -240.677
  H      159.345    -642.469    -240.855

 6  7  8  9  10  11  12  13  14  15  16  26  30  31  32  33  35 0
 6-311+G(2d,p)
 ****
 37  38 0
 6-311+G(2d,p)
 ****
 1  2  3  4  5  17  18  19  20  21  22  23  24  25 0
 3-21G
 ****
 27  28  29  34  36  39  40  41  42  43  44  45  46 0
 3-21G
 ****


