%nproc=1
%NoSave
%Mem=1900MB
#P OB98/GEN NMR

erre ene a

0 1
  C     -568.972     686.520    -178.062
  O     -569.962     685.737    -178.736
  P     -571.278     686.516    -179.251
  C     -572.861     685.444    -177.482
  O     -572.278     686.642    -178.008
  C     -573.938     685.783    -176.459
  O     -574.819     686.832    -176.932
  C     -574.868     684.615    -176.116
  O     -574.281     683.707    -175.197
  C     -576.042     685.341    -175.503
  O     -575.778     685.625    -174.106
  C     -576.092     686.657    -176.308
  N     -580.220     689.002    -178.097
  C     -579.424     689.317    -177.012
  N     -579.773     690.415    -176.316
  N     -578.394     688.612    -176.636
  C     -578.163     687.546    -177.444
  C     -578.872     687.126    -178.548
  C     -580.021     687.907    -178.937
  O     -580.782     687.657    -179.872
  N     -578.310     686.016    -179.112
  C     -577.277     685.757    -178.364
  N     -577.122     686.658    -177.340
  O     -571.989     685.445    -180.191
  O     -570.971     687.792    -179.977
  H     -575.560     684.776    -173.690
  H     -572.523     685.897    -180.879
  H     -581.013     689.589    -178.350
  H     -576.569     684.944    -178.525
  H     -576.263     687.522    -175.660
  H     -576.974     684.761    -175.523
  H     -580.505     691.072    -176.597
  H     -575.198     684.096    -177.042
  H     -579.178     690.695    -175.539
  H     -573.457     686.127    -175.535
  H     -572.080     684.830    -177.002
  H     -573.254     684.851    -178.312
  P     -573.483     682.450    -175.802
  C     -575.477     680.747    -175.877
  O     -574.601     681.603    -176.603
  O     -573.225     681.564    -174.503
  O     -572.250     682.782    -176.527
  H     -572.408     681.001    -174.634
  H     -575.827     681.220    -174.965
  H     -574.945     679.811    -175.660
  H     -576.321     680.517    -176.520
  H     -568.156     685.891    -177.773
  H     -569.403     686.967    -177.191
  H     -568.617     687.287    -178.718

 3  4  5  6  7  8  9  10  11  12  23  26  30  31  33  0
 6-311+G(2d,p)
 ****
 35  36  37  38 0
 6-311+G(2d,p)
 ****
 1  2  13  14  15  16  17  18  19  20  21  22  24  25  27  28  29 0
 3-21G
 ****
 32  34  39  40  41  42  43  44  45  46  47  48  49 0
 3-21G
 ****


