%nproc=1
%NoSave
%Mem=1900MB
#P OB98/GEN NMR

erre ene a

0 1
  C      365.224     326.246    -337.576
  O      364.942     325.639    -338.840
  P      366.153     324.854    -339.550
  C      365.726     322.409    -338.764
  O      365.657     323.354    -339.826
  C      366.316     321.088    -339.258
  O      366.696     320.248    -338.152
  C      365.351     320.246    -340.081
  O      365.269     320.703    -341.424
  C      366.026     318.882    -340.018
  O      367.071     318.805    -341.006
  C      366.627     318.873    -338.602
  N      366.751     315.495    -334.826
  C      367.785     316.031    -335.569
  N      369.031     315.625    -335.238
  N      367.611     316.880    -336.544
  C      366.314     317.217    -336.740
  C      365.203     316.759    -336.073
  C      365.407     315.789    -335.014
  O      364.521     315.261    -334.347
  N      364.054     317.335    -336.546
  C      364.472     318.166    -337.480
  N      365.833     318.117    -337.647
  O      367.213     324.680    -338.359
  O      366.741     325.571    -340.718
  H      366.640     318.836    -341.883
  H      368.116     324.611    -338.721
  H      366.937     314.834    -334.088
  H      363.830     318.822    -338.061
  H      367.647     318.474    -338.592
  H      365.336     318.056    -340.220
  H      369.239     315.030    -334.453
  H      364.363     320.194    -339.602
  H      369.802     316.034    -335.751
  H      367.213     321.314    -339.848
  H      364.727     322.232    -338.356
  H      366.331     322.830    -337.955
  P      363.803     320.869    -342.052
  C      363.253     323.368    -341.625
  O      363.715     322.393    -342.537
  O      362.846     320.815    -340.766
  O      363.443     319.832    -343.066
  H      361.972     320.461    -341.012
  H      363.692     323.221    -340.633
  H      362.163     323.320    -341.555
  H      363.544     324.358    -341.988
  H      364.344     326.733    -337.210
  H      366.008     326.965    -337.693
  H      365.531     325.494    -336.880

 3  4  5  6  7  8  9  10  11  12  23  26  30  31  33  0
 6-311+G(2d,p)
 ****
 35  36  37  38 0
 6-311+G(2d,p)
 ****
 1  2  13  14  15  16  17  18  19  20  21  22  24  25  27  28  29 0
 3-21G
 ****
 32  34  39  40  41  42  43  44  45  46  47  48  49 0
 3-21G
 ****


