%nproc=1
%NoSave
%Mem=1900MB
#P OB98/GEN NMR

erre ene a

0 1
  C     -434.027    1098.683    -314.065
  O     -433.328    1097.481    -314.325
  H     -434.306    1099.173    -315.005
  H     -434.936    1098.448    -313.508
  H     -433.405    1099.359    -313.463
  P     -432.011    1097.608    -315.230
  C     -432.631    1095.556    -316.690
  O     -431.701    1096.132    -315.789
  C     -432.402    1094.054    -316.805
  O     -431.162    1093.784    -317.497
  C     -432.275    1093.323    -315.476
  O     -433.542    1093.083    -314.875
  C     -431.612    1092.029    -315.925
  O     -432.608    1091.127    -316.468
  C     -430.673    1092.499    -317.034
  N     -426.238    1090.075    -316.118
  C     -427.447    1089.621    -316.538
  N     -428.580    1090.316    -316.743
  C     -428.384    1091.623    -316.504
  C     -427.216    1092.237    -316.079
  C     -426.106    1091.401    -315.871
  N     -424.878    1091.866    -315.441
  N     -427.389    1093.597    -315.946
  C     -428.642    1093.814    -316.292
  N     -429.290    1092.651    -316.623
  O     -430.844    1097.853    -314.166
  O     -432.047    1098.685    -316.266
  H     -433.293    1091.024    -315.770
  H     -430.183    1098.464    -314.549
  H     -427.499    1088.542    -316.721
  H     -429.126    1094.778    -316.306
  H     -430.695    1091.824    -317.905
  H     -431.109    1091.492    -315.107
  H     -431.594    1093.863    -314.786
  H     -433.220    1093.625    -317.399
  H     -432.515    1096.011    -317.681
  H     -424.080    1091.259    -315.503
  H     -424.791    1092.867    -315.264
  H     -433.640    1095.758    -316.329
  P     -433.810    1093.728    -313.425
  C     -433.384    1091.674    -311.899
  O     -434.351    1092.527    -312.514
  O     -435.114    1094.623    -313.668
  O     -432.684    1094.535    -312.869
  H     -435.153    1095.350    -313.015
  H     -433.885    1090.923    -311.325
  H     -432.755    1092.253    -311.256
  H     -432.788    1091.207    -312.655

 6  7  8  9  10  11  12  13  14  15  25  28  32  33  34  35 0
 6-311+G(2d,p)
 ****
 36  39  40 0
 6-311+G(2d,p)
 ****
 1  2  3  4  5  16  17  18  19  20  21  22  23  24 0
 3-21G
 ****
 26  27  29  30  31  37  38  41  42  43  44  45  46  47  48 0
 3-21G
 ****


