%nproc=1
%NoSave
%Mem=1900MB
#P OB98/GEN NMR

erre ene a

0 1
  C     1066.348      24.046    -145.607
  O     1067.587      24.723    -145.589
  H     1066.329      23.369    -146.464
  H     1065.521      24.754    -145.707
  H     1066.222      23.453    -144.696
  P     1067.815      25.861    -144.483
  C     1067.956      27.894    -146.080
  O     1067.200      27.217    -145.088
  C     1067.061      28.827    -146.904
  O     1066.237      29.601    -145.988
  C     1067.836      29.822    -147.776
  O     1067.029      30.104    -148.933
  C     1067.913      31.034    -146.863
  O     1068.297      32.186    -147.571
  C     1066.509      31.002    -146.258
  N     1066.395      31.822    -145.063
  C     1065.680      33.013    -145.192
  O     1065.190      33.334    -146.279
  N     1065.558      33.835    -144.099
  C     1066.159      33.525    -142.994
  N     1066.010      34.388    -141.958
  C     1066.980      32.304    -142.831
  C     1067.050      31.503    -143.894
  O     1069.208      25.986    -143.960
  O     1066.784      25.482    -143.317
  H     1067.913      32.190    -148.473
  H     1067.266      25.092    -142.565
  H     1067.475      32.100    -141.893
  H     1067.622      30.589    -143.869
  H     1065.757      31.343    -146.986
  H     1068.661      30.880    -146.086
  H     1068.817      29.442    -148.084
  H     1066.379      28.216    -147.506
  H     1065.456      35.217    -142.115
  H     1068.400      27.139    -146.730
  H     1066.455      34.264    -141.059
  H     1068.759      28.470    -145.615
  P     1067.331      29.481    -150.371
  C     1069.037      31.309    -151.015
  O     1068.808      29.917    -150.839
  O     1066.269      29.756    -151.390
  O     1067.480      27.903    -150.133
  H     1067.175      27.430    -150.925
  H     1070.049      31.468    -151.325
  H     1068.863      31.819    -150.091
  H     1068.372      31.688    -151.762

 6  7  8  9  10  11  12  13  14  15  16  26  30  31  32  33  35 0
 6-311+G(2d,p)
 ****
 37  38 0
 6-311+G(2d,p)
 ****
 1  2  3  4  5  17  18  19  20  21  22  23  24  25 0
 3-21G
 ****
 27  28  29  34  36  39  40  41  42  43  44  45  46 0
 3-21G
 ****


