%nproc=1
%NoSave
%Mem=1900MB
#P OB98/GEN NMR

erre ene a

0 1
  C      227.854    -899.134     845.568
  O      227.314    -898.204     846.520
  P      226.093    -898.554     847.495
  C      227.159    -897.444     849.565
  O      226.033    -897.504     848.688
  C      227.503    -895.994     849.944
  O      227.905    -895.254     848.795
  C      226.359    -895.214     850.571
  O      226.153    -895.604     851.919
  C      226.855    -893.774     850.394
  O      227.781    -893.414     851.433
  C      227.579    -893.864     849.020
  N      226.766    -893.314     847.941
  C      226.750    -891.924     847.821
  O      227.352    -891.214     848.641
  N      226.038    -891.354     846.777
  C      225.340    -892.104     845.988
  N      224.662    -891.494     844.982
  C      225.248    -893.574     846.137
  C      225.983    -894.104     847.127
  O      226.072    -899.994     847.950
  O      224.769    -898.234     846.641
  H      228.123    -892.534     851.206
  H      224.051    -898.844     846.908
  H      224.641    -894.174     845.468
  H      225.995    -895.164     847.283
  H      228.535    -893.324     849.056
  H      226.048    -893.044     850.405
  H      225.449    -895.364     849.979
  H      228.363    -896.044     850.639
  H      224.744    -890.494     844.919
  H      228.017    -897.904     849.046
  H      224.093    -891.984     844.313
  H      226.937    -898.034     850.460
  P      224.655    -895.844     852.456
  C      224.527    -898.394     852.132
  O      224.598    -897.314     853.066
  O      223.572    -895.514     851.482
  O      224.573    -894.914     853.761
  H      223.652    -894.604     853.857
  H      224.877    -899.304     852.624
  H      225.141    -898.184     851.256
  H      223.484    -898.544     851.842
  H      228.659    -898.672     845.036
  H      227.089    -899.422     844.878
  H      228.216    -900.000     846.081

 3  4  5  6  7  8  9  10  11  12  13  23  27  28  29  30  32 0
 6-311+G(2d,p)
 ****
 34  35 0
 6-311+G(2d,p)
 ****
 1  2  14  15  16  17  18  19  20  21  22  24  25  26 0
 3-21G
 ****
 31  33  36  37  38  39  40  41  42  43  44  45  46 0
 3-21G
 ****


