%nproc=1
%NoSave
%Mem=1900MB
#P OB98/GEN NMR

erre ene a

0 1
  C     -308.129     -60.167     189.324
  O     -309.272     -60.474     190.097
  H     -307.418     -59.621     189.950
  H     -308.411     -59.535     188.478
  H     -307.653     -61.084     188.963
  P     -310.367     -61.432     189.417
  C     -310.704     -63.080     191.434
  O     -310.197     -62.859     190.130
  C     -309.636     -63.713     192.328
  O     -308.504     -62.810     192.408
  C     -310.114     -63.991     193.754
  O     -309.494     -65.196     194.211
  C     -309.566     -62.814     194.542
  O     -309.434     -63.111     195.929
  C     -308.246     -62.546     193.802
  N     -307.756     -61.185     194.011
  C     -306.989     -60.962     195.158
  O     -306.765     -61.886     195.943
  N     -306.527     -59.698     195.414
  C     -306.859     -58.722     194.628
  N     -306.391     -57.486     194.949
  C     -307.704     -58.900     193.430
  C     -308.105     -60.146     193.180
  O     -309.744     -61.658     187.960
  O     -311.753     -60.881     189.416
  H     -308.815     -63.868     196.029
  H     -308.790     -61.842     187.971
  H     -307.962     -58.054     192.811
  H     -308.721     -60.370     192.317
  H     -307.469     -63.246     194.135
  H     -310.237     -61.951     194.446
  H     -311.199     -64.083     193.825
  H     -309.277     -64.630     191.846
  H     -305.836     -57.405     195.791
  H     -311.580     -63.737     191.394
  H     -306.631     -56.646     194.443
  H     -311.020     -62.116     191.842
  P     -310.000     -66.604     193.649
  C     -307.791     -67.503     192.646
  O     -309.107     -67.026     192.387
  O     -311.475     -66.737     193.459
  O     -309.498     -67.634     194.780
  H     -310.205     -68.293     194.919
  H     -307.311     -67.747     191.721
  H     -307.843     -68.377     193.262
  H     -307.229     -66.744     193.150

 6  7  8  9  10  11  12  13  14  15  16  26  30  31  32  33  35 0
 6-311+G(2d,p)
 ****
 37  38 0
 6-311+G(2d,p)
 ****
 1  2  3  4  5  17  18  19  20  21  22  23  24  25 0
 3-21G
 ****
 27  28  29  34  36  39  40  41  42  43  44  45  46 0
 3-21G
 ****


