%nproc=1
%NoSave
%Mem=1900MB
#P OB98/GEN NMR

erre ene a

0 1
  C      796.836      91.833     -55.682
  O      796.628      90.438     -55.801
  H      797.171      92.079     -54.672
  H      797.604      92.136     -56.397
  H      795.909      92.370     -55.907
  P      795.557      89.779     -54.803
  C      796.945      87.700     -54.102
  O      795.817      88.191     -54.823
  C      797.076      86.189     -54.312
  O      795.859      85.554     -53.840
  C      797.309      85.762     -55.768
  O      798.523      85.011     -55.876
  C      796.143      84.834     -56.082
  O      796.524      83.695     -56.855
  C      795.632      84.433     -54.701
  N      792.327      80.688     -55.720
  C      793.638      80.658     -55.387
  N      794.437      81.678     -55.028
  C      793.739      82.835     -54.993
  C      792.399      83.015     -55.271
  C      791.679      81.871     -55.678
  N      790.358      81.912     -56.067
  N      792.042      84.346     -55.147
  C      793.169      84.963     -54.824
  N      794.224      84.093     -54.746
  O      794.173      89.936     -55.596
  O      795.493      90.392     -53.448
  H      795.717      83.159     -56.982
  H      793.494      90.301     -54.993
  H      794.110      79.677     -55.432
  H      793.282      86.036     -54.686
  H      796.179      83.569     -54.293
  H      795.383      85.398     -56.639
  H      797.333      86.611     -56.460
  H      797.895      85.824     -53.672
  H      796.809      87.900     -53.032
  H      789.958      81.076     -56.442
  H      789.906      82.814     -56.137
  H      797.842      88.220     -54.443
  P      799.195      84.943     -57.343
  C      800.076      82.529     -57.771
  O      800.359      83.836     -57.285
  O      800.000      86.323     -57.433
  O      798.209      84.793     -58.458
  H      800.093      86.595     -58.367
  H      800.945      81.913     -57.665
  H      799.802      82.584     -58.804
  H      799.269      82.107     -57.210

 6  7  8  9  10  11  12  13  14  15  25  28  32  33  34  35 0
 6-311+G(2d,p)
 ****
 36  39  40 0
 6-311+G(2d,p)
 ****
 1  2  3  4  5  16  17  18  19  20  21  22  23  24 0
 3-21G
 ****
 26  27  29  30  31  37  38  41  42  43  44  45  46  47  48 0
 3-21G
 ****


