%nproc=1
%NoSave
%Mem=1900MB
#P OB98/GEN NMR

erre ene a

0 1
  C      119.132     392.507     144.306
  O      117.910     391.941     143.882
  H      119.104     392.627     145.391
  H      119.264     393.491     143.851
  H      119.979     391.864     144.049
  P      117.792     391.392     142.379
  C      117.857     392.445     140.025
  O      117.773     392.684     141.425
  C      117.158     393.558     139.243
  O      115.721     393.310     139.242
  C      117.378     394.964     139.827
  O      117.346     395.895     138.733
  C      116.145     395.134     140.692
  O      115.922     396.489     141.020
  C      115.084     394.466     139.817
  N      113.876     394.114     140.565
  C      112.741     394.875     140.311
  O      112.729     395.823     139.521
  N      111.623     394.545     141.021
  C      111.549     393.585     141.988
  O      110.523     393.350     142.619
  C      112.794     392.840     142.247
  C      113.881     393.127     141.534
  O      116.690     390.415     142.132
  O      119.231     390.757     142.077
  H      115.195     396.568     141.676
  H      119.145     390.016     141.445
  H      110.788     395.078     140.834
  H      112.764     392.076     143.018
  H      114.813     392.600     141.706
  H      114.788     395.129     138.991
  H      116.258     394.587     141.633
  H      118.313     395.058     140.385
  H      117.489     393.514     138.197
  H      117.367     391.485     139.816
  H      118.909     392.384     139.729
  P      118.690     396.407     138.014
  C      121.052     397.184     138.704
  O      119.726     396.900     139.142
  O      118.457     397.405     136.925
  O      119.373     395.082     137.437
  H      119.909     395.304     136.649
  H      121.643     397.500     139.538
  H      121.026     397.962     137.970
  H      121.482     396.303     138.276

 6  7  8  9  10  11  12  13  14  15  16  26  31  32  33  34  35 0
 6-311+G(2d,p)
 ****
 36  37 0
 6-311+G(2d,p)
 ****
 1  2  3  4  5  17  18  19  20  21  22  23  24  25 0
 3-21G
 ****
 27  28  29  30  38  39  40  41  42  43  44  45 0
 3-21G
 ****


