%nproc=1
%NoSave
%Mem=1900MB
#P OB98/GEN NMR

erre ene a

0 1
  C      167.452    -230.355    -326.899
  O      167.868    -231.684    -326.693
  H      168.339    -229.723    -326.996
  H      166.865    -230.017    -326.038
  H      166.856    -230.259    -327.810
  P      166.830    -232.873    -326.979
  C      167.846    -233.991    -329.075
  O      167.627    -234.086    -327.667
  C      168.635    -235.192    -329.603
  O      170.037    -235.036    -329.262
  C      168.172    -236.519    -328.987
  O      167.086    -237.133    -329.671
  C      169.438    -237.368    -329.087
  O      169.511    -238.049    -330.349
  C      170.565    -236.339    -328.965
  N      174.717    -237.356    -326.144
  C      174.460    -237.685    -327.474
  N      175.414    -238.408    -328.091
  N      173.369    -237.348    -328.093
  C      172.457    -236.721    -327.308
  C      172.592    -236.354    -325.990
  C      173.844    -236.656    -325.322
  O      174.122    -236.375    -324.165
  N      171.452    -235.760    -325.509
  C      170.598    -235.846    -326.516
  N      171.184    -236.342    -327.650
  O      165.944    -232.307    -328.191
  O      165.952    -233.249    -325.824
  H      168.800    -238.721    -330.372
  H      165.043    -232.664    -328.135
  H      175.595    -237.618    -325.721
  H      169.561    -235.515    -326.489
  H      171.369    -236.535    -329.693
  H      169.449    -238.139    -328.312
  H      176.241    -238.767    -327.637
  H      167.932    -236.389    -327.929
  H      175.188    -238.832    -328.992
  H      168.572    -235.210    -330.698
  H      168.406    -233.070    -329.243
  H      166.893    -233.904    -329.596
  P      165.912    -237.849    -328.854
  C      164.119    -236.440    -330.159
  O      164.560    -237.695    -329.681
  O      165.694    -236.882    -327.606
  O      166.190    -239.261    -328.428
  H      166.160    -237.225    -326.806
  H      163.195    -236.563    -330.685
  H      164.854    -236.032    -330.821
  H      163.974    -235.775    -329.333

 6  7  8  9  10  11  12  13  14  15  26  29  33  34 0
 6-311+G(2d,p)
 ****
 36  38  39  40  41 0
 6-311+G(2d,p)
 ****
 1  2  3  4  5  16  17  18  19  20  21  22  23  24  25 0
 3-21G
 ****
 27  28  30  31  32  35  37  42  43  44  45  46  47 0
 3-21G
 ****
 48  49 0
 3-21G
 ****


