%nproc=1
%NoSave
%Mem=1900MB
#P OB98/GEN NMR

erre ene a

0 1
  C     -145.801      41.958     -38.410
  O     -145.617      42.811     -37.298
  H     -146.233      42.538     -39.229
  H     -146.483      41.141     -38.164
  H     -144.840      41.555     -38.738
  P     -145.145      42.176     -35.906
  C     -142.742      42.501     -36.775
  O     -143.631      42.657     -35.677
  C     -141.297      42.762     -36.345
  O     -141.186      44.145     -35.917
  C     -140.829      41.867     -35.191
  O     -139.457      41.529     -35.411
  C     -140.968      42.776     -33.989
  O     -140.122      42.371     -32.929
  C     -140.651      44.153     -34.580
  N     -141.223      45.224     -33.766
  C     -140.716      45.364     -32.470
  O     -139.820      44.617     -32.070
  N     -141.274      46.296     -31.635
  C     -142.290      46.994     -32.035
  N     -142.820      47.873     -31.144
  C     -142.877      46.861     -33.384
  C     -142.300      45.969     -34.190
  O     -145.364      40.708     -35.745
  O     -145.962      43.014     -34.813
  H     -140.262      42.961     -32.157
  H     -146.809      42.572     -34.618
  H     -143.728      47.461     -33.668
  H     -142.672      45.796     -35.193
  H     -139.566      44.307     -34.651
  H     -142.002      42.750     -33.623
  H     -141.427      40.956     -35.087
  H     -140.646      42.647     -37.220
  H     -142.400      47.911     -30.223
  H     -143.030      43.222     -37.547
  H     -143.635      48.438     -31.326
  H     -142.834      41.490     -37.185
  P     -138.964      40.005     -35.310
  C     -140.137      38.994     -37.348
  O     -138.886      39.381     -36.790
  O     -139.711      39.170     -34.323
  O     -137.422      40.131     -34.884
  H     -137.170      39.351     -34.355
  H     -139.982      38.593     -38.328
  H     -140.779      39.847     -37.409
  H     -140.590      38.250     -36.726

 6  7  8  9  10  11  12  13  14  15  16  26  30  31  32  33  35 0
 6-311+G(2d,p)
 ****
 37  38 0
 6-311+G(2d,p)
 ****
 1  2  3  4  5  17  18  19  20  21  22  23  24  25 0
 3-21G
 ****
 27  28  29  34  36  39  40  41  42  43  44  45  46 0
 3-21G
 ****


