%nproc=1
%NoSave
%Mem=1900MB
#P OB98/GEN NMR

erre ene a

0 1
  C     -492.537    -548.933    -899.085
  O     -491.767    -549.780    -898.265
  P     -490.310    -549.264    -897.825
  C     -490.995    -548.500    -895.435
  O     -490.256    -549.409    -896.225
  C     -490.906    -548.882    -893.945
  O     -491.823    -549.954    -893.635
  C     -489.527    -549.368    -893.525
  O     -488.635    -548.257    -893.355
  C     -489.867    -550.097    -892.215
  O     -489.867    -549.185    -891.105
  C     -491.279    -550.656    -892.495
  N     -491.321    -552.088    -892.665
  C     -491.417    -552.864    -891.505
  O     -491.464    -552.313    -890.395
  N     -491.427    -554.225    -891.605
  C     -491.313    -554.776    -892.775
  N     -491.337    -556.135    -892.845
  C     -491.196    -554.019    -894.055
  C     -491.174    -552.680    -893.935
  O     -490.392    -547.673    -898.035
  O     -489.178    -549.885    -898.565
  H     -488.909    -548.939    -890.985
  H     -489.523    -547.286    -898.215
  H     -491.091    -554.539    -895.005
  H     -491.071    -552.059    -894.795
  H     -491.971    -550.401    -891.655
  H     -489.137    -550.873    -891.985
  H     -489.126    -550.083    -894.245
  H     -491.215    -547.989    -893.335
  H     -491.424    -556.673    -891.945
  H     -492.068    -548.550    -895.715
  H     -491.283    -556.679    -893.695
  H     -490.643    -547.495    -895.595
  P     -487.122    -548.497    -893.795
  C     -487.590    -548.812    -896.285
  O     -487.025    -547.950    -895.295
  O     -487.049    -550.082    -893.985
  O     -486.069    -547.984    -892.845
  H     -486.113    -550.352    -894.145
  H     -487.635    -548.257    -897.235
  H     -488.612    -549.090    -896.035
  H     -486.982    -549.711    -896.415
  H     -493.476    -549.400    -899.298
  H     -492.014    -548.750    -900.000
  H     -492.707    -548.005    -898.580

 3  4  5  6  7  8  9  10  11  12  13  21  23  27  28  29  30  32 0
 6-311+G(2d,p)
 ****
 34  35 0
 6-311+G(2d,p)
 ****
 1  2  14  15  16  17  18  19  20  22  24  25  26 0
 3-21G
 ****
 31  33  36  37  38  39  40  41  42  43  44  45  46 0
 3-21G
 ****


