%nproc=1
%NoSave
%Mem=1900MB
#P OB98/GEN NMR

erre ene a

0 1
  C      196.590       4.505      55.915
  O      196.052       4.465      54.606
  P      196.612       5.431      53.449
  C      194.958       7.418      53.469
  O      196.210       6.909      53.919
  C      195.106       8.888      53.081
  O      195.205       9.695      54.269
  C      196.351       9.202      52.257
  O      196.191       8.791      50.910
  C      196.467      10.706      52.480
  O      195.553      11.410      51.623
  C      196.023      10.846      53.950
  N      197.147      10.967      54.875
  C      197.520      12.265      55.238
  O      196.919      13.244      54.797
  N      198.556      12.430      56.123
  C      199.180      11.391      56.589
  N      200.154      11.607      57.515
  C      198.856      10.006      56.189
  C      197.835       9.870      55.345
  O      196.179       5.075      52.069
  O      198.194       5.422      53.653
  H      195.687      11.055      50.724
  H      198.653       4.696      53.160
  H      199.415       9.177      56.595
  H      197.522       8.889      55.018
  H      195.373      11.720      54.067
  H      197.473      11.097      52.291
  H      197.227       8.698      52.686
  H      194.201       9.188      52.535
  H      200.225      12.550      57.887
  H      194.236       7.335      54.286
  H      200.478      10.868      58.125
  H      194.607       6.819      52.622
  P      197.428       8.047      50.212
  C      198.340       9.929      48.675
  O      198.500       9.196      49.880
  O      196.842       7.622      48.785
  O      197.958       6.883      50.979
  H      196.604       6.676      48.785
  H      198.990      10.807      48.718
  H      197.305      10.261      48.556
  H      198.636       9.311      47.824
  H      196.084       3.790      56.530
  H      196.459       5.485      56.325
  H      197.633       4.270      55.879

 3  4  5  6  7  8  9  10  11  12  13  23  27  28  29  30  32 0
 6-311+G(2d,p)
 ****
 34  35 0
 6-311+G(2d,p)
 ****
 1  2  14  15  16  17  18  19  20  21  22  24  25  26 0
 3-21G
 ****
 31  33  36  37  38  39  40  41  42  43  44  45  46 0
 3-21G
 ****


