%nproc=1
%NoSave
%Mem=1900MB
#P OB98/GEN NMR

erre ene a

0 1
  C      -19.246      51.938     167.214
  O      -20.331      51.358     167.945
  P      -21.739      52.127     167.907
  C      -23.037      49.950     168.515
  O      -22.784      51.319     168.816
  C      -23.965      49.341     169.567
  O      -23.464      49.564     170.899
  C      -25.356      49.948     169.561
  O      -26.124      49.420     168.494
  C      -25.880      49.570     170.942
  O      -26.550      48.297     170.924
  C      -24.591      49.499     171.792
  N      -24.526      50.545     172.803
  C      -25.086      50.227     174.046
  O      -25.614      49.129     174.230
  N      -25.055      51.177     175.037
  C      -24.536      52.342     174.801
  N      -24.539      53.245     175.823
  C      -23.961      52.724     173.493
  C      -23.991      51.789     172.546
  O      -22.260      51.859     166.415
  O      -21.639      53.587     168.204
  H      -27.391      48.445     170.446
  H      -22.779      52.622     166.099
  H      -23.546      53.711     173.340
  H      -23.591      51.979     171.557
  H      -24.525      48.529     172.305
  H      -26.601      50.304     171.310
  H      -25.291      51.042     169.477
  H      -24.028      48.256     169.393
  H      -24.943      52.949     176.700
  H      -22.099      49.390     168.480
  H      -24.171      54.179     175.744
  H      -23.478      49.885     167.514
  P      -25.811      49.949     167.013
  C      -27.075      47.905     166.101
  O      -26.962      49.314     166.092
  O      -24.537      49.059     166.606
  O      -25.549      51.406     166.845
  H      -24.182      49.356     165.749
  H      -28.008      47.622     165.610
  H      -27.083      47.523     167.127
  H      -26.240      47.465     165.547
  H      -18.374      51.327     167.325
  H      -19.045      52.919     167.592
  H      -19.507      52.002     166.178

 3  4  5  6  7  8  9  10  11  12  13  21  23  27  28  29  30  32 0
 6-311+G(2d,p)
 ****
 34  35 0
 6-311+G(2d,p)
 ****
 1  2  14  15  16  17  18  19  20  22  24  25  26 0
 3-21G
 ****
 31  33  36  37  38  39  40  41  42  43  44  45  46 0
 3-21G
 ****


