%nproc=1
%NoSave
%Mem=1900MB
#P OB98/GEN NMR

erre ene a

0 1
  C      483.009    -623.569     226.229
  O      483.617    -624.684     226.852
  H      482.365    -623.072     226.958
  H      482.395    -623.894     225.386
  H      483.767    -622.860     225.890
  P      484.619    -625.595     225.989
  C      484.066    -627.490     227.672
  O      485.082    -626.746     227.013
  C      484.663    -628.727     228.336
  O      485.420    -629.516     227.389
  C      485.645    -628.442     229.465
  O      485.027    -627.993     230.660
  C      486.271    -629.816     229.620
  O      485.366    -630.688     230.306
  C      486.445    -630.229     228.138
  N      487.774    -629.920     227.614
  C      488.559    -631.013     227.220
  O      488.137    -632.160     227.321
  N      489.829    -630.776     226.744
  C      490.279    -629.564     226.690
  N      491.546    -629.391     226.218
  C      489.500    -628.385     227.116
  C      488.268    -628.633     227.556
  O      485.726    -624.869     225.292
  O      483.663    -626.410     224.998
  H      485.741    -631.588     230.260
  H      484.235    -626.983     224.431
  H      489.934    -627.400     227.078
  H      487.631    -627.824     227.895
  H      486.251    -631.304     228.010
  H      487.203    -629.801     230.193
  H      486.423    -627.737     229.138
  H      483.826    -629.352     228.675
  H      492.062    -630.216     225.934
  H      483.310    -627.767     226.931
  H      492.011    -628.490     226.210
  H      483.595    -626.875     228.445
  P      485.304    -626.466     231.098
  C      486.380    -627.258     233.346
  O      485.395    -626.474     232.698
  O      483.916    -625.746     230.781
  O      486.466    -625.816     230.416
  H      483.957    -625.278     229.924
  H      486.290    -627.140     234.406
  H      487.352    -626.939     233.033
  H      486.242    -628.288     233.089

 6  7  8  9  10  11  12  13  14  15  16  26  30  31  32  33  35 0
 6-311+G(2d,p)
 ****
 37  38 0
 6-311+G(2d,p)
 ****
 1  2  3  4  5  17  18  19  20  21  22  23  24  25 0
 3-21G
 ****
 27  28  29  34  36  39  40  41  42  43  44  45  46 0
 3-21G
 ****


