%nproc=1
%NoSave
%Mem=1900MB
#P OB98/GEN NMR

erre ene a

0 1
  C      435.642     278.763     164.311
  O      435.279     277.397     164.182
  H      435.321     279.133     165.289
  H      436.726     278.843     164.243
  H      435.192     279.359     163.519
  P      433.727     277.064     163.953
  C      434.113     276.041     161.595
  O      433.669     275.823     162.932
  C      434.662     274.753     160.998
  O      436.019     274.546     161.498
  C      433.848     273.491     161.340
  O      433.817     272.637     160.190
  C      434.671     272.820     162.432
  O      434.446     271.421     162.506
  C      436.090     273.200     162.003
  N      439.123     269.983     164.541
  C      438.542     269.910     163.324
  N      437.795     270.845     162.700
  C      437.718     271.967     163.435
  C      438.255     272.185     164.693
  C      438.981     271.133     165.263
  N      439.518     271.176     166.526
  N      437.913     273.456     165.137
  C      437.155     273.974     164.186
  N      437.006     273.107     163.132
  O      433.240     278.311     163.058
  O      432.908     276.915     165.190
  H      433.490     271.255     162.392
  H      432.963     279.045     163.638
  H      438.697     268.983     162.781
  H      436.670     274.931     164.218
  H      436.474     272.545     161.212
  H      434.427     273.265     163.405
  H      432.821     273.703     161.666
  H      434.748     274.874     159.907
  H      434.904     276.802     161.606
  H      439.925     270.326     166.885
  H      439.327     271.978     167.108
  H      433.276     276.411     160.994
  P      432.786     271.405     160.202
  C      430.946     272.483     158.705
  O      431.921     271.453     158.852
  O      431.731     271.819     161.332
  O      433.426     270.086     160.503
  H      431.394     271.030     161.789
  H      430.458     272.379     157.759
  H      431.426     273.438     158.756
  H      430.223     272.404     159.490

 6  7  8  9  10  11  12  13  14  15  25  28  32  33  34  35 0
 6-311+G(2d,p)
 ****
 36  39  40 0
 6-311+G(2d,p)
 ****
 1  2  3  4  5  16  17  18  19  20  21  22  23  24 0
 3-21G
 ****
 26  27  29  30  31  37  38  41  42  43  44  45  46  47 0
 3-21G
 ****
 48 0
 3-21G
 ****


