%nproc=1
%NoSave
%Mem=1900MB
#P OB98/GEN NMR

erre ene a

0 1
  C      725.712     161.666     261.373
  O      726.447     162.028     262.525
  H      726.185     162.123     260.499
  H      724.689     162.042     261.455
  H      725.702     160.583     261.242
  P      726.044     161.294     263.895
  C      725.894     163.136     265.722
  O      726.700     162.156     265.083
  C      726.772     164.126     266.487
  O      727.245     163.529     267.719
  C      728.016     164.578     265.724
  O      727.721     165.633     264.817
  C      728.879     165.069     266.875
  O      728.425     166.361     267.315
  C      728.608     164.009     267.956
  N      732.778     162.014     270.028
  C      732.134     163.211     270.299
  N      732.688     163.994     271.252
  N      731.050     163.615     269.685
  C      730.613     162.734     268.748
  C      731.161     161.522     268.397
  C      732.355     161.089     269.083
  O      732.951     160.029     268.910
  N      730.426     160.905     267.411
  C      729.453     161.760     267.150
  N      729.522     162.884     267.936
  O      726.930     159.959     263.875
  O      724.594     160.983     264.051
  H      728.529     166.968     266.558
  H      726.414     159.234     264.280
  H      733.618     161.763     270.524
  H      728.678     161.608     266.416
  H      728.627     164.429     268.966
  H      729.937     165.174     266.595
  H      733.548     163.768     271.725
  H      728.513     163.737     265.225
  H      732.224     164.854     271.495
  H      726.151     164.988     266.760
  H      725.213     162.642     266.424
  H      725.310     163.664     264.960
  P      728.320     165.526     263.332
  C      729.281     167.887     262.839
  O      728.182     166.991     262.698
  O      727.196     164.675     262.557
  O      729.667     164.884     263.233
  H      727.586     164.237     261.780
  H      729.044     168.819     262.369
  H      730.148     167.464     262.376
  H      729.476     168.051     263.878

 6  7  8  9  10  11  12  13  14  15  26  29  33  34 0
 6-311+G(2d,p)
 ****
 36  38  39  40  41 0
 6-311+G(2d,p)
 ****
 1  2  3  4  5  16  17  18  19  20  21  22  23  24  25 0
 3-21G
 ****
 27  28  30  31  32  35  37  42  43  44  45  46  47 0
 3-21G
 ****
 48  49 0
 3-21G
 ****


