%nproc=1
%NoSave
%Mem=1900MB
#P OB98/GEN NMR

erre ene a

0 1
  C     -236.958     501.231     294.001
  O     -237.782     502.174     294.665
  P     -237.681     503.751     294.351
  C     -236.157     505.602     295.326
  O     -236.300     504.227     295.014
  C     -234.722     505.894     295.794
  O     -233.810     505.618     294.699
  C     -234.488     507.357     296.237
  O     -233.542     507.316     297.318
  C     -233.872     507.989     295.005
  O     -233.135     509.154     295.307
  C     -233.036     506.820     294.469
  N     -232.717     506.966     293.048
  C     -231.826     507.977     292.691
  O     -231.344     508.742     293.533
  N     -231.487     508.117     291.357
  C     -232.057     507.372     290.463
  N     -231.646     507.514     289.170
  C     -233.095     506.364     290.798
  C     -233.342     506.203     292.091
  O     -238.872     504.550     294.757
  O     -237.342     503.827     292.795
  H     -233.660     509.706     295.917
  H     -238.151     503.790     292.215
  H     -233.554     505.786     290.013
  H     -234.072     505.468     292.426
  H     -232.109     506.716     295.044
  H     -234.662     508.262     294.298
  H     -235.405     507.845     296.574
  H     -234.474     505.204     296.605
  H     -230.824     508.087     289.014
  H     -236.844     505.843     296.137
  H     -231.797     506.773     288.496
  H     -236.414     506.207     294.454
  P     -233.789     508.284     298.578
  C     -233.030     510.715     299.099
  O     -233.449     509.788     298.124
  O     -232.537     507.927     299.519
  O     -235.062     508.080     299.336
  H     -232.763     508.125     300.443
  H     -232.835     511.678     298.610
  H     -232.104     510.381     299.580
  H     -233.813     510.857     299.862
  H     -237.185     500.247     294.355
  H     -235.930     501.453     294.200
  H     -237.137     501.281     292.947

 3  4  5  6  7  8  9  10  11  12  13  23  27  28  29  30  32 0
 6-311+G(2d,p)
 ****
 34  35 0
 6-311+G(2d,p)
 ****
 1  2  14  15  16  17  18  19  20  21  22  24  25  26 0
 3-21G
 ****
 31  33  36  37  38  39  40  41  42  43  44  45  46 0
 3-21G
 ****


