%nproc=1
%NoSave
%Mem=1900MB
#P OB98/GEN NMR

erre ene a

0 1
  C       -8.859      94.155    -271.610
  O       -9.737      93.048    -271.579
  H       -9.385      95.032    -271.225
  H       -8.549      94.354    -272.639
  H       -7.980      93.969    -270.985
  P       -9.100      91.614    -271.909
  C      -10.570      91.264    -274.021
  O       -9.258      91.398    -273.493
  C      -10.747      92.175    -275.232
  O      -10.275      93.507    -274.932
  C       -9.984      91.723    -276.472
  O      -10.692      90.725    -277.194
  C       -9.924      93.027    -277.254
  O      -11.200      93.279    -277.878
  C       -9.667      94.049    -276.138
  N       -5.877      97.360    -276.748
  C       -7.195      97.433    -277.158
  N       -7.552      98.545    -277.838
  N       -8.082      96.500    -276.930
  C       -7.580      95.440    -276.251
  C       -6.296      95.254    -275.788
  C       -5.328      96.296    -276.041
  O       -4.154      96.292    -275.680
  N       -6.169      94.058    -275.133
  C       -7.367      93.513    -275.214
  N       -8.259      94.309    -275.889
  O      -10.162      90.584    -271.290
  O       -7.734      91.377    -271.360
  H      -11.125      94.138    -278.331
  H       -9.681      89.814    -270.930
  H       -5.231      98.100    -276.960
  H       -7.639      92.551    -274.802
  H      -10.142      95.015    -276.341
  H       -9.178      93.006    -278.048
  H       -6.906      99.277    -278.090
  H       -8.966      91.399    -276.225
  H       -8.520      98.636    -278.121
  H      -11.821      92.248    -275.444
  H      -11.298      91.540    -273.251
  H      -10.732      90.218    -274.307
  P      -10.030      89.264    -277.289
  C      -10.115      89.476    -279.877
  O       -9.321      89.205    -278.728
  O      -11.299      88.303    -277.464
  O       -9.187      88.877    -276.123
  H      -11.076      87.398    -277.171
  H       -9.509      89.399    -280.755
  H      -10.518      90.465    -279.807
  H      -10.915      88.768    -279.933

 6  7  8  9  10  11  12  13  14  15  26  29  33  34 0
 6-311+G(2d,p)
 ****
 36  38  39  40  41 0
 6-311+G(2d,p)
 ****
 1  2  3  4  5  16  17  18  19  20  21  22  23  24  25 0
 3-21G
 ****
 27  28  30  31  32  35  37  42  43  44  45  46  47 0
 3-21G
 ****
 48  49 0
 3-21G
 ****


