%nproc=1
%NoSave
%Mem=1900MB
#P OB98/GEN NMR

erre ene a

0 1
  C     -177.749     -18.120    -536.903
  O     -177.045     -18.236    -538.143
  P     -177.900     -18.100    -539.493
  C     -176.556     -16.657    -541.195
  O     -177.549     -16.693    -540.177
  C     -175.520     -15.576    -540.886
  O     -174.889     -15.808    -539.610
  C     -174.380     -15.535    -541.890
  O     -174.787     -14.884    -543.077
  C     -173.302     -14.787    -541.115
  O     -173.390     -13.366    -541.317
  C     -173.610     -15.151    -539.645
  N     -172.578     -15.976    -539.042
  C     -171.639     -15.302    -538.256
  O     -171.706     -14.078    -538.121
  N     -170.640     -16.029    -537.659
  C     -170.570     -17.309    -537.853
  N     -169.553     -17.973    -537.243
  C     -171.523     -18.054    -538.701
  C     -172.493     -17.332    -539.259
  O     -179.395     -17.887    -538.959
  O     -177.801     -19.284    -540.397
  H     -173.015     -13.201    -542.205
  H     -180.035     -18.286    -539.578
  H     -171.419     -19.119    -538.844
  H     -173.239     -17.796    -539.899
  H     -173.712     -14.241    -539.040
  H     -172.299     -15.088    -541.433
  H     -174.037     -16.554    -542.110
  H     -176.030     -14.604    -540.857
  H     -168.917     -17.433    -536.672
  H     -177.020     -16.463    -542.164
  H     -169.399     -18.968    -537.333
  H     -176.087     -17.645    -541.264
  P     -175.267     -15.794    -544.301
  C     -177.428     -14.528    -544.865
  O     -176.868     -15.696    -544.292
  O     -175.026     -17.278    -543.730
  O     -174.593     -15.589    -545.616
  H     -175.194     -17.934    -544.427
  H     -178.503     -14.680    -544.984
  H     -176.988     -14.332    -545.845
  H     -177.266     -13.675    -544.203
  H     -177.061     -18.230    -536.091
  H     -178.496     -18.884    -536.844
  H     -178.217     -17.159    -536.847

 3  4  5  6  7  8  9  10  11  12  13  21  23  27  28  29  30  32 0
 6-311+G(2d,p)
 ****
 34  35 0
 6-311+G(2d,p)
 ****
 1  2  14  15  16  17  18  19  20  22  24  25  26 0
 3-21G
 ****
 31  33  36  37  38  39  40  41  42  43  44  45  46 0
 3-21G
 ****


