%nproc=1
%NoSave
%Mem=1900MB
#P OB98/GEN NMR

erre ene a

0 1
  C      409.530     277.507    -107.410
  O      408.669     277.213    -108.497
  P      409.306     276.455    -109.763
  C      408.746     278.310    -111.502
  O      409.756     277.610    -110.782
  C      409.355     279.066    -112.682
  O      410.053     280.232    -112.211
  C      410.388     278.257    -113.456
  O      409.750     277.328    -114.306
  C      411.133     279.359    -114.196
  O      410.483     279.691    -115.432
  C      411.063     280.545    -113.199
  N      412.343     280.824    -112.579
  C      413.245     281.572    -113.352
  O      412.935     281.934    -114.492
  N      414.476     281.861    -112.824
  C      414.793     281.433    -111.637
  N      416.025     281.758    -111.172
  C      413.882     280.625    -110.802
  C      412.687     280.359    -111.329
  O      408.034     275.803    -110.475
  O      410.354     275.444    -109.421
  H      409.539     279.842    -115.207
  H      408.289     275.008    -110.981
  H      414.191     280.298    -109.822
  H      411.958     279.771    -110.786
  H      410.721     281.453    -113.714
  H      412.156     279.058    -114.448
  H      411.070     277.745    -112.772
  H      408.541     279.387    -113.343
  H      416.632     282.299    -111.772
  H      408.260     279.032    -110.835
  H      416.357     281.490    -110.252
  H      407.992     277.595    -111.843
  P      410.680     276.266    -115.074
  C      409.680     277.215    -117.239
  O      410.864     276.872    -116.546
  O      409.652     275.058    -115.339
  O      411.913     275.811    -114.381
  H      410.137     274.293    -115.719
  H      409.951     277.758    -118.152
  H      409.052     277.863    -116.622
  H      409.134     276.317    -117.514
  H      408.978     278.008    -106.643
  H      410.326     278.138    -107.746
  H      409.936     276.597    -107.020

 3  4  5  6  7  8  9  10  11  12  13  21  23  27  28  29  30  32 0
 6-311+G(2d,p)
 ****
 34  35 0
 6-311+G(2d,p)
 ****
 1  2  14  15  16  17  18  19  20  22  24  25  26 0
 3-21G
 ****
 31  33  36  37  38  39  40  41  42  43  44  45  46 0
 3-21G
 ****


