%nproc=1
%NoSave
%Mem=1900MB
#P OB98/GEN NMR

erre ene a

0 1
  C      608.361     -14.084    -440.078
  O      609.505     -14.879    -439.780
  P      609.395     -16.457    -440.070
  C      611.544     -16.699    -438.613
  O      610.225     -17.177    -438.897
  C      611.917     -17.019    -437.166
  O      611.145     -16.197    -436.268
  C      611.638     -18.451    -436.751
  O      612.640     -19.315    -437.254
  C      611.644     -18.336    -435.235
  O      612.966     -18.443    -434.702
  C      611.078     -16.906    -435.008
  N      609.729     -16.911    -434.480
  C      609.616     -16.769    -433.082
  O      610.639     -16.667    -432.384
  N      608.354     -16.791    -432.514
  C      607.321     -16.938    -433.271
  N      606.099     -16.945    -432.659
  C      607.386     -17.113    -434.742
  C      608.609     -17.095    -435.271
  O      610.319     -16.659    -441.364
  O      607.999     -16.964    -440.283
  H      612.863     -18.474    -433.735
  H      610.027     -17.431    -441.873
  H      606.486     -17.242    -435.328
  H      608.764     -17.221    -436.333
  H      611.716     -16.348    -434.302
  H      611.038     -19.119    -434.764
  H      610.654     -18.769    -437.105
  H      612.987     -16.764    -437.033
  H      606.080     -16.846    -431.648
  H      611.577     -15.620    -438.770
  H      605.229     -17.042    -433.157
  H      612.246     -17.164    -439.314
  P      612.174     -20.524    -438.196
  C      614.535     -21.504    -437.993
  O      613.158     -21.732    -437.818
  O      612.734     -20.085    -439.634
  O      610.722     -20.847    -438.224
  H      612.422     -20.700    -440.315
  H      615.103     -22.336    -437.555
  H      614.838     -20.576    -437.498
  H      614.777     -21.449    -439.063
  H      608.566     -13.061    -439.841
  H      607.529     -14.425    -439.498
  H      608.129     -14.169    -441.119

 3  4  5  6  7  8  9  10  11  12  13  21  23  27  28  29  30  32 0
 6-311+G(2d,p)
 ****
 34  35 0
 6-311+G(2d,p)
 ****
 1  2  14  15  16  17  18  19  20  22  24  25  26 0
 3-21G
 ****
 31  33  36  37  38  39  40  41  42  43  44  45  46 0
 3-21G
 ****


