%nproc=1
%NoSave
%Mem=1900MB
#P OB98/GEN NMR

erre ene a

0 1
  C      367.573     418.360    -490.631
  O      367.478     419.734    -490.304
  H      367.378     417.747    -489.744
  H      366.824     418.126    -491.392
  H      368.568     418.135    -491.031
  P      368.520     420.286    -489.217
  C      366.602     421.167    -487.704
  O      367.775     421.480    -488.447
  C      366.142     422.388    -486.910
  O      367.105     422.702    -485.887
  C      365.985     423.663    -487.734
  O      364.759     423.681    -488.450
  C      366.008     424.714    -486.634
  O      364.719     424.774    -485.996
  C      367.051     424.141    -485.665
  N      369.926     428.356    -485.271
  C      368.640     428.105    -484.931
  N      367.954     426.951    -485.047
  C      368.733     425.981    -485.557
  C      370.061     426.078    -485.930
  C      370.666     427.341    -485.773
  N      371.965     427.603    -486.190
  N      370.521     424.875    -486.426
  C      369.480     424.075    -486.376
  N      368.380     424.694    -485.847
  O      369.613     421.035    -490.121
  O      369.143     419.245    -488.349
  H      364.091     425.114    -486.662
  H      370.370     420.439    -490.272
  H      368.091     428.945    -484.514
  H      369.474     423.046    -486.705
  H      366.769     424.293    -484.613
  H      366.237     425.717    -487.004
  H      366.842     423.826    -488.398
  H      365.199     422.126    -486.409
  H      366.816     420.346    -487.015
  H      372.117     428.569    -486.460
  H      372.364     426.893    -486.790
  H      365.821     420.851    -488.404
  P      364.812     424.005    -490.020
  C      364.024     426.455    -489.736
  O      363.744     425.171    -490.282
  O      364.141     422.716    -490.670
  O      366.184     424.244    -490.575
  H      364.748     422.311    -491.324
  H      363.232     427.130    -489.987
  H      364.945     426.821    -490.139
  H      364.105     426.380    -488.672

 6  7  8  9  10  11  12  13  14  15  25  28  32  33  34  35 0
 6-311+G(2d,p)
 ****
 36  39  40 0
 6-311+G(2d,p)
 ****
 1  2  3  4  5  16  17  18  19  20  21  22  23  24 0
 3-21G
 ****
 26  27  29  30  31  37  38  41  42  43  44  45  46  47  48 0
 3-21G
 ****


