%nproc=1
%NoSave
%Mem=1900MB
#P OB98/GEN NMR

erre ene a

0 1
  C      -92.646     143.765     -44.706
  O      -93.804     143.964     -43.922
  H      -92.792     142.926     -45.389
  H      -92.458     144.668     -45.293
  H      -91.782     143.577     -44.064
  P      -94.278     142.734     -43.008
  C      -96.777     142.700     -43.697
  O      -95.833     142.971     -42.671
  C      -98.166     143.162     -43.261
  O      -98.139     144.603     -43.104
  C      -99.296     142.809     -44.244
  O     -100.295     142.024     -43.587
  C      -99.907     144.152     -44.616
  O     -101.331     144.117     -44.700
  C      -99.431     145.077     -43.502
  N     -101.989     148.757     -45.927
  C     -102.415     147.648     -45.284
  N     -101.692     146.764     -44.566
  C     -100.399     147.132     -44.525
  C      -99.821     148.245     -45.110
  C     -100.674     149.074     -45.858
  N     -100.231     150.173     -46.559
  N      -98.463     148.283     -44.855
  C      -98.219     147.187     -44.165
  N      -99.355     146.451     -43.958
  O      -93.545     143.010     -41.611
  O      -93.949     141.382     -43.546
  H     -101.652     143.753     -43.854
  H      -93.113     142.192     -41.300
  H     -103.478     147.438     -45.361
  H      -97.243     146.857     -43.834
  H     -100.090     145.042     -42.626
  H      -99.510     144.465     -45.589
  H      -98.935     142.282     -45.133
  H      -98.376     142.734     -42.273
  H      -96.807     141.622     -43.892
  H     -100.889     150.641     -47.161
  H      -99.238     150.351     -46.601
  H      -96.466     143.212     -44.613
  P     -100.932     140.813     -44.435
  C     -103.263     140.573     -43.301
  O     -101.956     140.040     -43.470
  O      -99.709     139.789     -44.571
  O     -101.472     141.222     -45.764
  H      -99.816     139.247     -45.375
  H     -103.819     139.948     -42.634
  H     -103.758     140.612     -44.249
  H     -103.196     141.560     -42.893

 6  7  8  9  10  11  12  13  14  15  25  28  32  33  34  35 0
 6-311+G(2d,p)
 ****
 36  39  40 0
 6-311+G(2d,p)
 ****
 1  2  3  4  5  16  17  18  19  20  21  22  23  24 0
 3-21G
 ****
 26  27  29  30  31  37  38  41  42  43  44  45  46  47  48 0
 3-21G
 ****


