%nproc=1
%NoSave
%Mem=1900MB
#P OB98/GEN NMR

erre ene a

0 1
  C     -414.664     548.842     257.005
  O     -414.785     549.364     255.677
  P     -416.031     548.909     254.784
  C     -416.557     547.171     252.933
  O     -415.561     547.725     253.792
  C     -415.933     546.171     251.951
  O     -415.038     546.848     251.009
  C     -415.087     545.093     252.663
  O     -415.171     543.846     251.957
  C     -413.672     545.624     252.518
  O     -412.710     544.583     252.677
  C     -413.735     546.235     251.120
  N     -409.871     547.588     248.038
  C     -410.784     546.583     247.951
  N     -411.801     546.298     248.800
  C     -411.832     547.192     249.811
  C     -410.984     548.261     250.030
  C     -409.951     548.447     249.081
  N     -409.001     549.449     249.177
  N     -411.326     548.948     251.174
  C     -412.345     548.262     251.683
  N     -412.704     547.211     250.875
  O     -416.792     550.016     254.120
  O     -416.970     548.135     255.833
  H     -412.909     543.898     251.997
  H     -417.900     548.374     255.674
  H     -410.664     545.922     247.095
  H     -412.829     548.479     252.616
  H     -413.671     545.471     250.337
  H     -413.487     546.382     253.276
  H     -415.361     544.925     253.710
  H     -416.730     545.711     251.356
  H     -417.044     547.984     252.374
  H     -408.242     549.433     248.524
  H     -408.960     550.003     250.031
  H     -417.342     546.712     253.544
  P     -415.970     542.660     252.708
  C     -415.388     541.485     254.971
  O     -414.941     542.012     253.743
  O     -416.663     541.719     251.772
  O     -416.982     543.495     253.640
  H     -416.572     544.198     254.172
  H     -414.555     540.972     255.463
  H     -416.194     540.761     254.806
  H     -415.736     542.294     255.616
  H     -413.784     549.240     257.466
  H     -414.593     547.775     256.964
  H     -415.524     549.120     257.577

 3  4  5  6  7  8  9  10  11  12  22  25  29  30  31  32 0
 6-311+G(2d,p)
 ****
 33  36  37 0
 6-311+G(2d,p)
 ****
 1  2  13  14  15  16  17  18  19  20  21  23  24  26 0
 3-21G
 ****
 27  28  34  35  38  39  40  41  42  43  44  45  46  47  48 0
 3-21G
 ****


