%nproc=1
%NoSave
%Mem=1900MB
#P OB98/GEN NMR

erre ene a

0 1
  C     -635.114     532.269    -446.781
  O     -634.196     533.340    -446.667
  H     -635.435     532.193    -447.827
  H     -635.996     532.454    -446.156
  H     -634.642     531.328    -446.494
  P     -633.619     533.707    -445.220
  C     -631.284     534.717    -445.660
  O     -632.659     534.978    -445.413
  C     -630.530     536.024    -445.930
  O     -630.783     536.402    -447.307
  C     -631.003     537.170    -445.024
  O     -629.934     537.817    -444.328
  C     -631.855     538.027    -445.957
  O     -631.939     539.388    -445.594
  C     -631.227     537.770    -447.332
  N     -632.140     537.993    -448.449
  C     -631.660     537.730    -449.732
  O     -630.535     537.294    -449.990
  N     -632.537     537.967    -450.757
  C     -633.811     538.443    -450.635
  O     -634.559     538.623    -451.583
  C     -634.254     538.730    -449.262
  C     -633.412     538.495    -448.249
  O     -633.016     532.576    -444.454
  O     -634.883     534.326    -444.448
  H     -631.055     539.782    -445.693
  H     -635.245     533.662    -443.832
  H     -632.205     537.761    -451.686
  H     -635.255     539.113    -449.121
  H     -633.705     538.688    -447.218
  H     -630.358     538.403    -447.486
  H     -632.879     537.628    -445.948
  H     -631.637     536.791    -444.217
  H     -629.456     535.839    -445.827
  H     -631.218     534.049    -446.530
  H     -630.845     534.210    -444.793
  P     -629.748     537.812    -442.744
  C     -627.324     538.802    -442.791
  O     -628.674     538.933    -442.361
  O     -629.582     536.468    -442.113
  O     -631.145     538.433    -442.210
  H     -631.334     538.003    -441.352
  H     -626.756     539.640    -442.444
  H     -627.292     538.768    -443.860
  H     -626.909     537.900    -442.393

 6  7  8  9  10  11  12  13  14  15  16  26  31  32  33  34  35 0
 6-311+G(2d,p)
 ****
 36  37 0
 6-311+G(2d,p)
 ****
 1  2  3  4  5  17  18  19  20  21  22  23  24  25 0
 3-21G
 ****
 27  28  29  30  38  39  40  41  42  43  44  45 0
 3-21G
 ****


