%nproc=1
%NoSave
%Mem=1900MB
#P OB98/GEN NMR

erre ene a

0 1
  C     -450.742     -11.874     738.909
  O     -451.161     -12.400     737.658
  P     -452.541     -11.936     736.990
  C     -451.399      -9.823     736.068
  O     -452.442     -10.336     736.894
  C     -451.993      -8.980     734.944
  O     -452.795      -9.841     734.101
  C     -452.933      -7.857     735.374
  O     -452.280      -6.647     735.743
  C     -453.713      -7.629     734.086
  O     -452.926      -6.847     733.168
  C     -453.885      -9.057     733.554
  N     -458.971      -8.557     733.369
  C     -457.967      -7.817     732.844
  N     -456.640      -8.002     732.956
  C     -456.378      -9.117     733.660
  C     -457.288      -9.972     734.251
  C     -458.649      -9.657     734.085
  N     -459.666     -10.430     734.600
  N     -456.639     -11.002     734.914
  C     -455.357     -10.768     734.708
  N     -455.149      -9.649     733.948
  O     -453.763     -12.468     737.653
  O     -452.416     -12.397     735.463
  H     -452.447      -6.184     733.698
  H     -453.293     -12.399     735.038
  H     -458.276      -6.949     732.264
  H     -454.553     -11.378     735.088
  H     -453.808      -9.110     732.464
  H     -454.650      -7.085     734.244
  H     -453.622      -8.187     736.160
  H     -451.169      -8.585     734.335
  H     -450.853     -10.666     735.640
  H     -460.608     -10.195     734.324
  H     -459.429     -11.333     734.993
  H     -450.709      -9.238     736.676
  P     -453.079      -5.650     736.718
  C     -452.125      -7.098     738.683
  O     -453.233      -6.437     738.110
  O     -454.344      -5.104     736.149
  O     -451.988      -4.527     737.047
  H     -451.231      -4.826     737.583
  H     -452.396      -7.428     739.691
  H     -451.266      -6.427     738.758
  H     -451.855      -7.969     738.087
  H     -449.802     -12.307     739.181
  H     -451.471     -12.107     739.656
  H     -450.637     -10.812     738.832

 3  4  5  6  7  8  9  10  11  12  22  25  29  30  31  32 0
 6-311+G(2d,p)
 ****
 33  36  37 0
 6-311+G(2d,p)
 ****
 1  2  13  14  15  16  17  18  19  20  21  23  24  26 0
 3-21G
 ****
 27  28  34  35  38  39  40  41  42  43  44  45  46  47  48 0
 3-21G
 ****


