%nproc=1
%NoSave
%Mem=1900MB
#P OB98/GEN NMR

erre ene a

0 1
  C      220.845    -757.765     566.545
  O      221.461    -758.939     567.039
  P      222.093    -759.999     566.015
  C      224.263    -761.379     565.945
  O      223.642    -760.180     566.396
  C      225.730    -761.415     566.382
  O      226.520    -760.540     565.543
  C      225.967    -760.950     567.807
  O      225.595    -761.948     568.739
  C      227.458    -760.636     567.765
  O      228.231    -761.837     567.931
  C      227.626    -760.078     566.349
  N      230.535    -756.013     567.365
  C      230.686    -757.325     567.657
  N      229.849    -758.340     567.381
  C      228.739    -757.893     566.764
  C      228.424    -756.575     566.444
  C      229.402    -755.613     566.748
  N      229.286    -754.279     566.398
  N      227.182    -756.513     565.850
  C      226.747    -757.758     565.828
  N      227.682    -758.631     566.310
  O      221.835    -759.726     564.574
  O      221.448    -761.391     566.451
  H      229.168    -761.573     567.972
  H      220.935    -761.756     565.712
  H      231.617    -757.590     568.149
  H      225.788    -758.074     565.456
  H      228.542    -760.448     565.869
  H      227.766    -759.946     568.560
  H      225.408    -760.023     567.993
  H      226.101    -762.443     566.238
  H      224.195    -761.418     564.853
  H      230.104    -753.695     566.545
  H      228.606    -754.022     565.691
  H      223.724    -762.242     566.357
  P      225.729    -761.673     570.303
  C      225.066    -763.027     572.380
  O      224.736    -762.700     571.048
  O      225.588    -760.246     570.726
  O      227.171    -762.250     570.669
  H      227.559    -761.732     571.398
  H      225.883    -763.762     572.395
  H      224.184    -763.475     572.863
  H      225.360    -762.133     572.941
  H      220.483    -757.180     567.365
  H      220.027    -758.032     565.909
  H      221.559    -757.195     565.988

 3  4  5  6  7  8  9  10  11  12  22  25  29  30  31  32 0
 6-311+G(2d,p)
 ****
 33  36  37 0
 6-311+G(2d,p)
 ****
 1  2  13  14  15  16  17  18  19  20  21  23  24  26 0
 3-21G
 ****
 27  28  34  35  38  39  40  41  42  43  44  45  46  47  48 0
 3-21G
 ****


