%nproc=1
%NoSave
%Mem=1900MB
#P OB98/GEN NMR

erre ene a

0 1
  C      155.358     -40.911      84.061
  O      155.794     -40.897      82.721
  P      155.012     -40.155      81.544
  C      153.623     -42.306      81.008
  O      153.620     -40.913      81.299
  C      152.219     -42.788      80.614
  O      151.316     -42.534      81.721
  C      151.674     -42.011      79.406
  O      150.991     -42.820      78.453
  C      150.886     -40.882      80.054
  O      149.925     -40.289      79.192
  C      150.329     -41.568      81.299
  N      146.881     -38.566      83.518
  C      146.703     -39.497      82.515
  N      145.497     -39.495      81.909
  N      147.642     -40.324      82.125
  C      148.828     -40.131      82.747
  C      149.123     -39.241      83.754
  C      148.069     -38.359      84.200
  O      148.213     -37.440      85.007
  N      150.448     -39.278      84.095
  C      150.968     -40.166      83.271
  N      150.029     -40.685      82.409
  O      155.820     -39.763      80.349
  O      154.532     -38.798      82.275
  H      149.311     -39.773      79.747
  H      154.545     -38.088      81.601
  H      146.143     -37.900      83.720
  H      152.015     -40.445      83.231
  H      149.405     -42.105      81.082
  H      151.596     -40.095      80.324
  H      144.812     -38.775      82.088
  H      152.497     -41.580      78.824
  H      145.427     -39.984      81.019
  H      152.244     -43.870      80.444
  H      153.950     -42.810      81.927
  H      154.345     -42.535      80.224
  P      151.224     -42.926      76.878
  C      149.166     -41.511      76.289
  O      150.571     -41.639      76.178
  O      150.270     -44.113      76.396
  O      152.635     -43.198      76.472
  H      150.726     -44.643      75.712
  H      148.823     -40.772      75.557
  H      148.906     -41.161      77.292
  H      148.670     -42.466      76.092
  H      156.049     -41.471      84.655
  H      154.391     -41.365      84.117
  H      155.303     -39.908      84.429

 3  4  5  6  7  8  9  10  11  12  23  26  30  31 0
 6-311+G(2d,p)
 ****
 33  35  36  37  38 0
 6-311+G(2d,p)
 ****
 1  2  13  14  15  16  17  18  19  20  21  22  24  25 0
 3-21G
 ****
 27  28  29  32  34  39  40  41  42  43  44  45  46  47  48  49 0
 3-21G
 ****


