%nproc=1
%NoSave
%Mem=1900MB
#P OB98/GEN NMR

erre ene a

0 1
  C      487.281     213.343     -33.208
  O      487.479     213.608     -31.813
  P      486.548     214.621     -30.973
  C      488.095     216.684     -31.118
  O      486.832     216.128     -31.454
  C      488.040     218.216     -31.013
  O      489.376     218.749     -30.757
  C      487.492     218.918     -32.263
  O      486.687     220.013     -31.799
  C      488.771     219.404     -32.932
  O      488.562     220.443     -33.885
  C      489.569     219.829     -31.692
  N      490.996     220.079     -31.922
  C      491.387     221.387     -32.209
  O      490.572     222.291     -32.329
  N      492.738     221.644     -32.376
  C      493.598     220.681     -32.274
  N      494.919     221.003     -32.435
  C      493.220     219.284     -31.983
  C      491.925     219.057     -31.818
  O      486.661     214.441     -29.486
  O      485.053     214.334     -31.460
  H      484.443     214.435     -30.702
  H      489.412     220.649     -34.299
  H      493.973     218.510     -31.895
  H      491.559     218.062     -31.572
  H      489.112     220.730     -31.257
  H      489.237     218.566     -33.460
  H      486.874     218.274     -32.896
  H      487.434     218.472     -30.129
  H      495.137     221.976     -32.626
  H      488.814     216.412     -31.903
  H      495.670     220.335     -32.364
  H      488.445     216.244     -30.177
  P      485.090     219.920     -31.867
  C      484.693     222.010     -33.382
  O      484.617     220.608     -33.246
  O      484.641     221.019     -30.788
  O      484.494     218.586     -31.533
  H      483.764     220.787     -30.446
  H      485.103     222.255     -34.363
  H      485.312     222.477     -32.603
  H      483.673     222.421     -33.316
  H      488.016     212.643     -33.546
  H      487.376     214.254     -33.761
  H      486.303     212.935     -33.358

 3  4  5  6  7  8  9  10  11  12  13  24  27  28  29  30  32 0
 6-311+G(2d,p)
 ****
 34  35 0
 6-311+G(2d,p)
 ****
 1  2  14  15  16  17  18  19  20  21  22  23  25  26 0
 3-21G
 ****
 31  33  36  37  38  39  40  41  42  43  44  45  46 0
 3-21G
 ****


