%nproc=1
%NoSave
%Mem=1900MB
#P OB98/GEN NMR

erre ene a

0 1
  C       81.604     -30.307      -2.380
  O       81.609     -28.976      -1.903
  H       81.632     -30.316      -3.473
  H       82.492     -30.820      -2.001
  H       80.713     -30.835      -2.025
  P       80.364     -28.058      -2.327
  C       79.603     -26.961      -4.553
  O       80.662     -27.565      -3.825
  C       79.927     -26.954      -6.043
  O       80.330     -28.271      -6.472
  C       78.762     -26.566      -6.948
  O       78.575     -25.159      -6.995
  C       79.247     -27.109      -8.284
  O       80.205     -26.200      -8.858
  C       79.945     -28.413      -7.865
  N       77.864     -31.715     -11.174
  C       78.727     -30.690     -11.344
  N       79.253     -29.868     -10.411
  C       78.814     -30.203      -9.187
  C       77.952     -31.233      -8.851
  C       77.460     -32.012      -9.913
  N       76.523     -33.017      -9.733
  N       77.721     -31.255      -7.490
  C       78.417     -30.244      -7.016
  N       79.099     -29.583      -8.001
  O       80.577     -26.739      -1.440
  O       79.019     -28.665      -2.100
  H       79.696     -25.458      -9.235
  H       80.023     -26.797      -0.641
  H       79.035     -30.501     -12.368
  H       78.454     -29.951      -5.976
  H       80.861     -28.594      -8.437
  H       78.443     -27.236      -9.014
  H       77.841     -27.087      -6.663
  H       80.781     -26.280      -6.199
  H       79.464     -25.931      -4.208
  H       75.925     -33.163     -10.542
  H       76.070     -33.009      -8.826
  H       78.684     -27.526      -4.367
  P       77.285     -24.604      -7.767
  C       76.614     -24.404     -10.257
  O       77.442     -25.051      -9.301
  O       77.545     -23.025      -7.803
  O       75.975     -24.922      -7.131
  H       76.789     -22.556      -7.397
  H       76.821     -24.795     -11.231
  H       76.811     -23.352     -10.246
  H       75.586     -24.577     -10.014

 6  7  8  9  10  11  12  13  14  15  25  28  32  33  34  35 0
 6-311+G(2d,p)
 ****
 36  39  40 0
 6-311+G(2d,p)
 ****
 1  2  3  4  5  16  17  18  19  20  21  22  23  24 0
 3-21G
 ****
 26  27  29  30  31  37  38  41  42  43  44  45  46  47  48 0
 3-21G
 ****


