%nproc=1
%NoSave
%Mem=1900MB
#P OB98/GEN NMR

erre ene a

0 1
  C      773.984    -616.588       3.526
  O      773.190    -617.754       3.272
  P      771.596    -617.542       3.236
  C      771.043    -618.036       5.741
  O      771.144    -617.065       4.707
  C      770.046    -617.594       6.805
  O      770.449    -616.356       7.424
  C      768.640    -617.333       6.280
  O      767.908    -618.537       6.095
  C      768.051    -616.500       7.414
  O      767.578    -617.378       8.462
  C      769.266    -615.690       7.901
  N      768.357    -610.824       9.025
  C      768.222    -611.953       9.803
  N      767.815    -611.757      11.082
  N      768.466    -613.172       9.379
  C      768.905    -613.199       8.095
  C      769.064    -612.163       7.219
  C      768.758    -610.828       7.695
  O      768.818    -609.794       7.026
  N      769.524    -612.595       5.995
  C      769.658    -613.899       6.141
  N      769.275    -614.319       7.400
  O      771.026    -619.034       3.144
  O      771.121    -616.691       2.109
  H      766.643    -617.585       8.262
  H      770.159    -619.042       2.713
  H      768.146    -609.912       9.393
  H      770.034    -614.573       5.385
  H      769.329    -615.658       8.994
  H      767.192    -615.897       7.092
  H      767.681    -610.849      11.502
  H      768.671    -616.724       5.356
  H      767.743    -612.579      11.683
  H      770.006    -618.370       7.574
  H      772.027    -618.182       6.201
  H      770.748    -618.995       5.300
  P      767.609    -618.986       4.587
  C      765.356    -617.776       4.178
  O      766.756    -617.812       3.925
  O      766.565    -620.181       4.776
  O      768.820    -619.424       3.813
  H      766.637    -620.821       4.046
  H      765.136    -617.986       5.231
  H      764.853    -618.501       3.549
  H      764.988    -616.778       3.935
  H      775.020    -616.855       3.525
  H      773.722    -616.179       4.479
  H      773.803    -615.860       2.763

 3  4  5  6  7  8  9  10  11  12  23  26  30  31  33  0
 6-311+G(2d,p)
 ****
 35  36  37  38 0
 6-311+G(2d,p)
 ****
 1  2  13  14  15  16  17  18  19  20  21  22  24  25  27  28  29 0
 3-21G
 ****
 32  34  39  40  41  42  43  44  45  46  47  48  49 0
 3-21G
 ****


