%nproc=1
%NoSave
%Mem=1900MB
#P OB98/GEN NMR

erre ene a

0 1
  C      -40.062     188.724      23.150
  O      -39.888     188.739      24.552
  H      -39.109     188.981      22.680
  H      -40.805     189.470      22.858
  H      -40.367     187.733      22.806
  P      -41.095     188.258      25.490
  C      -39.861     186.222      26.485
  O      -40.450     187.489      26.743
  C      -39.501     185.515      27.794
  O      -38.347     186.174      28.376
  C      -40.626     185.533      28.835
  O      -40.630     184.295      29.545
  C      -40.223     186.660      29.767
  O      -40.757     186.494      31.079
  C      -38.698     186.582      29.714
  N      -36.443     189.249      33.366
  C      -36.867     187.934      33.355
  N      -36.681     187.227      34.490
  N      -37.429     187.363      32.321
  C      -37.531     188.184      31.247
  C      -37.151     189.497      31.131
  C      -36.549     190.125      32.290
  O      -36.169     191.289      32.365
  N      -37.438     189.994      29.884
  C      -37.994     188.978      29.247
  N      -38.084     187.861      30.036
  O      -42.179     187.503      24.786
  O      -41.651     189.609      26.140
  H      -40.530     185.583      31.366
  H      -42.495     189.873      25.730
  H      -36.029     189.642      34.193
  H      -38.349     189.002      28.226
  H      -38.291     185.847      30.419
  H      -40.581     187.618      29.369
  H      -36.234     187.598      35.316
  H      -41.603     185.701      28.383
  H      -36.957     186.252      34.500
  H      -39.199     184.486      27.562
  H      -38.956     186.379      25.890
  H      -40.562     185.610      25.906
  P      -41.862     183.288      29.347
  C      -40.442     181.164      29.055
  O      -41.421     181.826      29.845
  O      -42.510     183.324      28.003
  O      -42.888     183.752      30.491
  H      -43.800     183.635      30.160
  H      -40.229     180.206      29.480
  H      -39.547     181.750      29.031
  H      -40.813     181.038      28.059

 6  7  8  9  10  11  12  13  14  15  26  29  33  34 0
 6-311+G(2d,p)
 ****
 36  38  39  40  41 0
 6-311+G(2d,p)
 ****
 1  2  3  4  5  16  17  18  19  20  21  22  23  24  25 0
 3-21G
 ****
 27  28  30  31  32  35  37  42  43  44  45  46  47 0
 3-21G
 ****
 48  49 0
 3-21G
 ****


