%nproc=1
%NoSave
%Mem=1900MB
#P OB98/GEN NMR

erre ene a

0 1
  C       81.804    -350.250    -117.704
  O       80.768    -350.145    -116.749
  H       82.746    -349.953    -117.229
  H       81.611    -349.582    -118.544
  H       81.906    -351.282    -118.058
  P       79.299    -350.660    -117.140
  C       78.132    -348.358    -117.106
  O       78.245    -349.635    -116.493
  C       77.471    -347.356    -116.154
  O       76.092    -347.758    -115.940
  C       78.147    -347.266    -114.779
  O       78.119    -345.912    -114.326
  C       77.268    -348.124    -113.895
  O       77.335    -347.739    -112.522
  C       75.891    -347.905    -114.514
  N       72.424    -349.687    -111.296
  C       73.073    -348.478    -111.319
  N       72.778    -347.608    -110.327
  N       73.949    -348.131    -112.229
  C       74.133    -349.089    -113.183
  C       73.546    -350.335    -113.268
  C       72.596    -350.703    -112.237
  O       72.004    -351.772    -112.156
  N       74.010    -351.022    -114.362
  C       74.870    -350.200    -114.936
  N       74.995    -349.022    -114.243
  O       79.035    -352.104    -116.831
  O       79.178    -350.362    -118.706
  H       77.021    -346.810    -112.473
  H       79.259    -351.186    -119.229
  H       71.768    -349.906    -110.566
  H       75.428    -350.407    -115.834
  H       75.398    -347.000    -114.138
  H       77.574    -349.175    -113.970
  H       72.096    -347.797    -109.602
  H       79.179    -347.626    -114.807
  H       73.217    -346.694    -110.335
  H       77.447    -346.374    -116.644
  H       77.524    -348.460    -118.013
  H       79.134    -348.004    -117.389
  P       79.313    -344.920    -114.747
  C       79.346    -343.116    -112.922
  O       78.961    -343.438    -114.250
  O       79.765    -345.026    -116.173
  O       80.499    -345.348    -113.743
  H       81.358    -345.257    -114.212
  H       79.062    -342.108    -112.703
  H       80.407    -343.217    -112.824
  H       78.860    -343.780    -112.239

 6  7  8  9  10  11  12  13  14  15  26  29  33  34 0
 6-311+G(2d,p)
 ****
 36  38  39  40  41 0
 6-311+G(2d,p)
 ****
 1  2  3  4  5  16  17  18  19  20  21  22  23  24  25 0
 3-21G
 ****
 27  28  30  31  32  35  37  42  43  44  45  46  47 0
 3-21G
 ****
 48  49 0
 3-21G
 ****


