%nproc=1
%NoSave
%Mem=1900MB
#P OB98/GEN NMR

erre ene a

0 1
  C      -22.158     739.715    -721.064
  O      -23.318     740.523    -721.165
  H      -22.422     738.693    -721.352
  H      -21.802     739.701    -720.032
  H      -21.372     740.078    -721.733
  P      -23.174     742.104    -720.993
  C      -23.851     742.557    -723.449
  O      -24.146     742.789    -722.066
  C      -25.123     742.703    -724.287
  O      -26.078     741.684    -723.940
  C      -25.842     744.036    -724.076
  O      -25.175     745.094    -724.747
  C      -27.222     743.693    -724.631
  O      -27.231     743.760    -726.064
  C      -27.395     742.233    -724.154
  N      -28.208     742.120    -722.940
  C      -29.596     742.146    -723.110
  O      -30.131     742.293    -724.220
  N      -30.343     742.005    -721.973
  C      -29.860     741.933    -720.698
  O      -30.580     741.870    -719.707
  C      -28.394     741.942    -720.565
  C      -27.642     742.033    -721.678
  O      -21.770     742.643    -720.995
  O      -23.915     742.410    -719.599
  H      -28.068     743.350    -726.361
  H      -23.251     742.507    -718.894
  H      -31.345     742.039    -722.079
  H      -27.966     741.894    -719.559
  H      -26.557     742.044    -721.600
  H      -27.858     741.617    -724.942
  H      -28.002     744.369    -724.280
  H      -25.949     744.253    -723.005
  H      -24.845     742.577    -725.345
  H      -23.452     741.546    -723.560
  H      -23.079     743.272    -723.765
  P      -24.643     746.366    -723.932
  C      -22.209     746.405    -724.752
  O      -23.476     747.044    -724.818
  O      -24.266     746.108    -722.514
  O      -25.837     747.418    -724.037
  H      -26.303     747.482    -723.175
  H      -21.512     746.930    -725.371
  H      -22.300     745.396    -725.095
  H      -21.860     746.408    -723.740

 6  7  8  9  10  11  12  13  14  15  16  26  31  32  33  34  35 0
 6-311+G(2d,p)
 ****
 36  37 0
 6-311+G(2d,p)
 ****
 1  2  3  4  5  17  18  19  20  21  22  23  24  25 0
 3-21G
 ****
 27  28  29  30  38  39  40  41  42  43  44  45 0
 3-21G
 ****


