%nproc=1
%NoSave
%Mem=1900MB
#P OB98/GEN NMR

erre ene a

0 1
  C      343.649    -270.242      67.953
  O      342.681    -269.253      67.661
  H      343.396    -270.709      68.909
  H      344.642    -269.788      68.032
  H      343.650    -271.011      67.176
  P      342.913    -268.409      66.313
  C      344.660    -266.666      65.518
  O      344.161    -267.439      66.601
  C      346.143    -266.363      65.717
  O      346.909    -267.585      65.800
  C      346.769    -265.527      64.605
  O      346.530    -264.141      64.812
  C      348.240    -265.895      64.752
  O      348.857    -265.157      65.829
  C      348.162    -267.394      65.092
  N      351.052    -270.716      62.611
  C      351.336    -269.931      63.712
  N      352.592    -270.021      64.209
  N      350.479    -269.118      64.267
  C      349.281    -269.083      63.626
  C      348.878    -269.811      62.531
  C      349.819    -270.750      61.961
  O      349.600    -271.532      61.038
  N      347.583    -269.513      62.191
  C      347.220    -268.585      63.059
  N      348.222    -268.281      63.947
  O      341.666    -267.402      66.287
  O      342.986    -269.208      65.060
  H      348.372    -265.335      66.653
  H      341.370    -267.296      65.361
  H      351.738    -271.347      62.244
  H      346.248    -268.107      63.086
  H      348.971    -267.694      65.767
  H      348.811    -265.653      63.848
  H      353.358    -270.392      63.668
  H      346.408    -265.848      63.619
  H      352.821    -269.391      64.970
  H      346.246    -265.853      66.687
  H      344.101    -265.727      65.469
  H      344.519    -267.220      64.583
  P      346.931    -263.125      63.642
  C      349.134    -262.075      62.748
  O      348.534    -263.098      63.531
  O      346.571    -261.696      64.278
  O      346.200    -263.332      62.358
  H      345.756    -261.348      63.874
  H      350.198    -262.187      62.769
  H      348.868    -261.118      63.147
  H      348.788    -262.149      61.738

 6  7  8  9  10  11  12  13  14  15  26  29  33  34 0
 6-311+G(2d,p)
 ****
 36  38  39  40  41 0
 6-311+G(2d,p)
 ****
 1  2  3  4  5  16  17  18  19  20  21  22  23  24  25 0
 3-21G
 ****
 27  28  30  31  32  35  37  42  43  44  45  46  47 0
 3-21G
 ****
 48  49 0
 3-21G
 ****


