%nproc=1
%NoSave
%Mem=1900MB
#P OB98/GEN NMR

erre ene a

0 1
  C      261.399    -347.846    -200.844
  O      262.807    -347.954    -200.757
  H      260.960    -348.281    -199.942
  H      261.027    -348.389    -201.716
  H      261.111    -346.793    -200.907
  P      263.646    -347.404    -202.009
  C      264.019    -345.061    -203.018
  O      263.435    -345.811    -201.960
  C      263.823    -343.565    -202.786
  O      262.405    -343.265    -202.868
  C      264.317    -343.094    -201.415
  O      264.914    -341.805    -201.548
  C      263.043    -342.983    -200.594
  O      263.168    -342.053    -199.520
  C      262.022    -342.587    -201.658
  N      258.044    -341.306    -198.731
  C      259.202    -340.673    -199.015
  N      260.204    -341.077    -199.823
  C      259.899    -342.252    -200.400
  C      258.766    -343.019    -200.204
  C      257.805    -342.503    -199.318
  N      256.640    -343.158    -199.001
  N      258.839    -344.188    -200.941
  C      259.993    -344.115    -201.581
  N      260.677    -342.973    -201.270
  O      263.351    -348.047    -203.322
  O      265.152    -347.567    -201.488
  H      263.829    -342.401    -198.886
  H      265.243    -347.272    -200.564
  H      259.345    -339.709    -198.525
  H      260.382    -344.866    -202.258
  H      262.010    -341.506    -201.849
  H      262.796    -343.963    -200.164
  H      265.031    -343.787    -200.965
  H      264.313    -343.014    -203.595
  H      263.563    -345.344    -203.975
  H      255.998    -342.710    -198.366
  H      256.433    -344.045    -199.445
  H      265.084    -345.305    -203.058
  P      266.495    -341.718    -201.804
  C      267.674    -343.344    -203.425
  O      266.799    -342.228    -203.294
  O      267.363    -342.298    -200.738
  O      266.735    -340.137    -201.933
  H      267.587    -339.910    -201.518
  H      267.794    -343.583    -204.461
  H      267.259    -344.185    -202.910
  H      268.627    -343.102    -203.002

 6  7  8  9  10  11  12  13  14  15  25  28  32  33  34  35 0
 6-311+G(2d,p)
 ****
 36  39  40 0
 6-311+G(2d,p)
 ****
 1  2  3  4  5  16  17  18  19  20  21  22  23  24 0
 3-21G
 ****
 26  27  29  30  31  37  38  41  42  43  44  45  46  47 0
 3-21G
 ****
 48 0
 3-21G
 ****


