%nproc=1
%NoSave
%Mem=1900MB
#P OB98/GEN NMR

erre ene a

0 1
  C     -721.860     580.835     513.880
  O     -722.056     582.238     513.671
  P     -722.220     583.142     514.988
  C     -720.401     584.900     514.358
  O     -721.783     584.640     514.611
  C     -720.244     586.204     513.561
  O     -720.526     586.007     512.159
  C     -721.190     587.300     514.021
  O     -720.768     587.862     515.246
  C     -721.136     588.241     512.826
  O     -719.929     589.049     512.880
  C     -721.030     587.253     511.646
  N     -723.328     585.773     507.311
  C     -722.016     585.910     507.638
  N     -721.486     586.306     508.811
  C     -722.461     586.588     509.709
  C     -723.826     586.494     509.514
  C     -724.264     586.080     508.244
  N     -725.598     585.952     507.905
  N     -724.500     586.863     510.654
  C     -723.565     587.189     511.525
  N     -722.310     587.031     510.991
  O     -721.042     582.628     515.942
  O     -723.561     583.013     515.636
  H     -719.188     588.424     512.959
  H     -721.416     582.122     516.686
  H     -721.317     585.657     506.867
  H     -723.738     587.552     512.527
  H     -720.332     587.613     510.870
  H     -721.982     588.935     512.772
  H     -722.220     586.904     514.132
  H     -719.206     586.530     513.674
  H     -719.955     584.062     513.795
  H     -725.813     585.727     506.941
  H     -726.293     586.257     508.561
  H     -719.860     584.958     515.306
  P     -721.697     588.985     515.919
  C     -722.544     587.412     517.771
  O     -721.762     588.553     517.475
  O     -723.146     588.564     515.374
  O     -721.293     590.388     515.648
  H     -723.302     587.593     515.454
  H     -722.477     587.213     518.846
  H     -722.192     586.554     517.219
  H     -723.607     587.602     517.518
  H     -721.765     580.343     512.934
  H     -722.699     580.433     514.408
  H     -720.970     580.681     514.453

 3  4  5  6  7  8  9  10  11  12  22  25  29  30  31  32 0
 6-311+G(2d,p)
 ****
 33  36  37 0
 6-311+G(2d,p)
 ****
 1  2  13  14  15  16  17  18  19  20  21  23  24  26 0
 3-21G
 ****
 27  28  34  35  38  39  40  41  42  43  44  45  46  47  48 0
 3-21G
 ****


