%nproc=1
%NoSave
%Mem=1900MB
#P OB98/GEN NMR

erre ene a

0 1
  C     -529.935    1198.667    -169.918
  O     -531.221    1199.215    -170.173
  P     -532.423    1198.779    -169.196
  C     -534.586    1198.454    -170.603
  O     -533.757    1199.362    -169.875
  C     -535.973    1199.035    -170.811
  O     -536.645    1199.168    -169.535
  C     -536.002    1200.426    -171.434
  O     -535.846    1200.374    -172.845
  C     -537.395    1200.898    -171.042
  O     -538.364    1200.361    -171.967
  C     -537.581    1200.275    -169.653
  N     -539.543    1204.018    -166.853
  C     -540.105    1203.299    -167.887
  N     -541.385    1203.593    -168.205
  N     -539.466    1202.365    -168.559
  C     -538.221    1202.135    -168.101
  C     -537.540    1202.788    -167.078
  C     -538.233    1203.860    -166.393
  O     -537.769    1204.566    -165.512
  N     -536.292    1202.271    -166.902
  C     -536.208    1201.285    -167.782
  N     -537.338    1201.189    -168.559
  O     -532.213    1199.722    -167.924
  O     -532.447    1197.337    -168.822
  H     -538.120    1200.682    -172.857
  H     -532.603    1199.308    -167.131
  H     -540.081    1204.703    -166.368
  H     -535.344    1200.636    -167.895
  H     -538.575    1199.846    -169.531
  H     -537.495    1201.988    -171.065
  H     -541.959    1204.207    -167.651
  H     -535.251    1201.081    -170.966
  H     -541.828    1203.052    -168.945
  H     -536.552    1198.320    -171.421
  H     -534.668    1197.512    -170.043
  H     -534.112    1198.242    -171.563
  P     -534.466    1200.964    -173.440
  C     -535.322    1203.132    -174.604
  O     -534.887    1201.775    -174.740
  O     -533.733    1199.662    -174.010
  O     -533.630    1201.696    -172.430
  H     -532.762    1199.801    -174.014
  H     -534.739    1203.636    -173.819
  H     -536.375    1203.148    -174.365
  H     -535.150    1203.649    -175.550
  H     -529.239    1199.041    -170.639
  H     -529.982    1197.600    -169.987
  H     -529.616    1198.947    -168.936

 3  4  5  6  7  8  9  10  11  12  23  26  30  31  33  0
 6-311+G(2d,p)
 ****
 35  36  37  38 0
 6-311+G(2d,p)
 ****
 1  2  13  14  15  16  17  18  19  20  21  22  24  25  27  28  29 0
 3-21G
 ****
 32  34  39  40  41  42  43  44  45  46  47  48  49 0
 3-21G
 ****


