%nproc=1
%NoSave
%Mem=1900MB
#P OB98/GEN NMR

erre ene a

0 1
  C      280.399    -253.097      94.028
  O      280.930    -253.682      92.849
  P      279.932    -253.897      91.608
  C      279.719    -256.430      92.149
  O      279.048    -255.196      91.937
  C      278.857    -257.608      91.688
  O      277.716    -257.732      92.580
  C      278.312    -257.476      90.257
  O      278.275    -258.797      89.707
  C      276.910    -256.945      90.498
  O      276.040    -257.084      89.389
  C      276.533    -257.732      91.750
  N      271.473    -257.980      92.454
  C      272.321    -258.743      91.725
  N      273.660    -258.622      91.594
  C      274.114    -257.590      92.323
  C      273.369    -256.712      93.096
  C      271.986    -256.939      93.150
  N      271.125    -256.153      93.889
  N      274.184    -255.761      93.675
  C      275.400    -256.056      93.254
  N      275.408    -257.164      92.454
  O      280.905    -254.401      90.445
  O      279.154    -252.679      91.206
  H      275.218    -256.577      89.543
  H      280.650    -254.024      89.583
  H      271.861    -259.561      91.176
  H      276.292    -255.498      93.492
  H      276.290    -258.779      91.517
  H      276.971    -255.871      90.724
  H      278.926    -256.838      89.615
  H      279.449    -258.528      91.785
  H      279.926    -256.551      93.218
  H      270.135    -256.271      93.702
  H      271.484    -255.272      94.231
  H      280.680    -256.414      91.623
  P      278.648    -259.003      88.157
  C      276.248    -259.784      87.665
  O      277.242    -258.817      87.398
  O      278.835    -260.591      88.100
  O      279.810    -258.215      87.655
  H      278.077    -261.059      88.497
  H      275.321    -259.483      87.168
  H      276.061    -259.848      88.748
  H      276.558    -260.759      87.283
  H      281.171    -253.016      94.765
  H      279.609    -253.711      94.406
  H      280.017    -252.123      93.802

 3  4  5  6  7  8  9  10  11  12  22  25  29  30  31  32 0
 6-311+G(2d,p)
 ****
 33  36  37 0
 6-311+G(2d,p)
 ****
 1  2  13  14  15  16  17  18  19  20  21  23  24  26 0
 3-21G
 ****
 27  28  34  35  38  39  40  41  42  43  44  45  46  47  48 0
 3-21G
 ****


