%nproc=1
%NoSave
%Mem=1900MB
#P OB98/GEN NMR

erre ene a

0 1
  C     -656.054    -326.247    -388.127
  O     -656.893    -325.729    -387.103
  P     -656.370    -324.982    -385.787
  C     -657.712    -325.381    -383.566
  O     -657.628    -324.731    -384.828
  C     -658.997    -325.040    -382.784
  O     -659.203    -323.608    -382.798
  C     -660.214    -325.657    -383.484
  O     -660.563    -327.012    -383.242
  C     -661.340    -324.667    -383.226
  O     -662.115    -325.015    -382.070
  C     -660.610    -323.348    -382.997
  N     -663.240    -319.366    -384.845
  C     -663.443    -320.079    -383.683
  N     -664.518    -319.732    -382.938
  N     -662.677    -321.067    -383.299
  C     -661.693    -321.373    -384.179
  C     -661.405    -320.749    -385.376
  C     -662.224    -319.623    -385.758
  O     -662.078    -318.944    -386.771
  N     -660.348    -321.345    -386.007
  C     -660.019    -322.349    -385.209
  N     -660.809    -322.404    -384.079
  O     -655.457    -323.831    -386.024
  O     -655.532    -326.128    -385.025
  H     -661.496    -325.178    -381.331
  H     -654.803    -325.674    -384.557
  H     -663.842    -318.599    -385.086
  H     -659.219    -323.055    -385.403
  H     -660.960    -322.846    -382.079
  H     -662.038    -324.651    -384.066
  H     -665.207    -319.060    -383.232
  H     -660.031    -325.609    -384.565
  H     -664.793    -320.387    -382.204
  H     -658.907    -325.328    -381.728
  H     -656.821    -325.074    -382.988
  H     -657.629    -326.463    -383.693
  P     -660.865    -328.121    -384.350
  C     -663.013    -329.179    -383.439
  O     -661.624    -329.339    -383.635
  O     -659.422    -328.748    -384.679
  O     -661.508    -327.617    -385.603
  H     -659.447    -329.254    -385.508
  H     -663.351    -329.904    -382.692
  H     -663.538    -329.363    -384.374
  H     -663.247    -328.173    -383.083
  H     -656.657    -326.695    -388.889
  H     -655.398    -326.984    -387.712
  H     -655.476    -325.452    -388.550

 3  4  5  6  7  8  9  10  11  12  23  26  30  31 0
 6-311+G(2d,p)
 ****
 33  35  36  37  38 0
 6-311+G(2d,p)
 ****
 1  2  13  14  15  16  17  18  19  20  21  22  24  25 0
 3-21G
 ****
 27  28  29  32  34  39  40  41  42  43  44  45  46  47  48  49 0
 3-21G
 ****


