%nproc=1
%NoSave
%Mem=1900MB
#P OB98/GEN NMR

erre ene a

0 1
  C      138.829    -564.739    -358.865
  O      137.764    -565.655    -358.734
  H      138.880    -564.404    -359.904
  H      139.774    -565.232    -358.616
  H      138.686    -563.866    -358.219
  P      137.285    -566.092    -357.264
  C      137.980    -568.574    -357.050
  O      136.938    -567.656    -357.358
  C      137.624    -569.968    -357.569
  O      136.645    -570.555    -356.661
  C      137.005    -569.960    -358.979
  O      137.419    -571.151    -359.663
  C      135.527    -570.025    -358.665
  O      134.770    -570.475    -359.769
  C      135.521    -570.973    -357.464
  N      134.256    -570.915    -356.741
  C      133.473    -572.061    -356.757
  O      133.784    -573.097    -357.351
  N      132.262    -571.976    -356.127
  C      131.723    -570.837    -355.586
  O      130.603    -570.789    -355.109
  C      132.575    -569.632    -355.646
  C      133.787    -569.730    -356.211
  O      136.219    -565.249    -356.644
  O      138.634    -566.102    -356.397
  H      134.766    -569.797    -360.468
  H      138.432    -566.028    -355.446
  H      131.689    -572.803    -356.117
  H      132.177    -568.714    -355.248
  H      134.435    -568.864    -356.282
  H      135.707    -572.006    -357.780
  H      135.151    -569.037    -358.389
  H      137.290    -569.076    -359.566
  H      138.515    -570.602    -357.527
  H      138.094    -568.595    -355.959
  H      138.916    -568.228    -357.501
  P      138.762    -571.198    -360.547
  C      137.549    -572.458    -362.425
  O      138.704    -572.412    -361.598
  O      140.026    -571.146    -359.740
  O      138.669    -569.899    -361.481
  H      139.525    -569.437    -361.482
  H      137.614    -573.300    -363.082
  H      137.488    -571.559    -363.002
  H      136.676    -572.550    -361.813

 6  7  8  9  10  11  12  13  14  15  16  26  31  32  33  34  35 0
 6-311+G(2d,p)
 ****
 36  37 0
 6-311+G(2d,p)
 ****
 1  2  3  4  5  17  18  19  20  21  22  23  24  25 0
 3-21G
 ****
 27  28  29  30  38  39  40  41  42  43  44  45 0
 3-21G
 ****


