%nproc=1
%NoSave
%Mem=1900MB
#P OB98/GEN NMR

erre ene a

0 1
  C     -837.774    1621.574     589.733
  O     -836.482    1621.113     589.336
  P     -835.215    1621.858     589.995
  C     -834.312    1622.665     587.690
  O     -834.068    1621.921     588.862
  C     -833.221    1623.700     587.477
  O     -833.149    1624.573     588.602
  C     -831.812    1623.128     587.307
  O     -831.629    1622.545     586.030
  C     -830.974    1624.356     587.607
  O     -830.927    1625.204     586.423
  C     -831.791    1625.051     588.734
  N     -828.477    1626.432     592.395
  C     -828.725    1626.927     591.174
  N     -829.598    1626.500     590.216
  C     -830.272    1625.448     590.684
  C     -830.141    1624.800     591.918
  C     -829.192    1625.312     592.779
  N     -828.954    1624.835     594.047
  N     -831.003    1623.730     592.006
  C     -831.642    1623.717     590.856
  N     -831.263    1624.731     590.053
  O     -834.659    1620.748     591.023
  O     -835.496    1623.170     590.669
  H     -830.665    1624.631     585.675
  H     -834.281    1621.187     591.820
  H     -828.136    1627.806     590.884
  H     -832.431    1622.994     590.600
  H     -831.788    1626.133     588.608
  H     -829.911    1624.106     587.863
  H     -831.618    1622.358     588.093
  H     -833.479    1624.297     586.559
  H     -835.298    1623.170     587.762
  H     -828.150    1625.180     594.565
  H     -829.382    1623.953     594.285
  H     -834.381    1621.974     586.824
  P     -832.170    1621.068     585.793
  C     -829.774    1620.308     585.301
  O     -831.094    1620.407     584.812
  O     -833.438    1621.332     584.837
  O     -832.452    1620.296     587.055
  H     -833.189    1621.907     584.084
  H     -829.156    1619.819     584.542
  H     -829.750    1619.722     586.228
  H     -829.341    1621.304     585.477
  H     -838.526    1621.004     589.230
  H     -837.878    1622.607     589.476
  H     -837.885    1621.456     590.791

 3  4  5  6  7  8  9  10  11  12  22  25  29  30  31  32 0
 6-311+G(2d,p)
 ****
 33  36  37 0
 6-311+G(2d,p)
 ****
 1  2  13  14  15  16  17  18  19  20  21  23  24  26 0
 3-21G
 ****
 27  28  34  35  38  39  40  41  42  43  44  45  46  47  48 0
 3-21G
 ****


