%nproc=1
%NoSave
%Mem=1900MB
#P OB98/GEN NMR

erre ene a

0 1
  C      202.991      64.632    -245.468
  O      202.303      63.447    -245.878
  P      201.786      62.490    -244.696
  C      199.994      63.610    -243.188
  O      200.261      62.888    -244.384
  C      198.631      64.312    -243.261
  O      198.489      65.040    -244.516
  C      197.434      63.346    -243.161
  O      196.400      64.042    -242.449
  C      197.054      63.164    -244.624
  O      195.756      62.616    -244.799
  C      197.253      64.591    -245.124
  N      194.532      64.287    -249.434
  C      194.194      64.117    -248.138
  N      194.981      64.214    -247.043
  C      196.240      64.524    -247.394
  C      196.742      64.725    -248.674
  C      195.821      64.595    -249.734
  N      196.163      64.744    -251.059
  N      198.101      65.005    -248.629
  C      198.418      64.899    -247.352
  N      197.320      64.696    -246.565
  O      202.590      63.013    -243.412
  O      202.017      61.037    -244.957
  H      195.539      62.579    -245.755
  H      203.357      62.438    -243.236
  H      193.149      63.873    -247.955
  H      199.421      64.962    -246.945
  H      196.458      65.264    -244.786
  H      197.766      62.482    -245.102
  H      197.662      62.411    -242.642
  H      198.576      65.050    -242.446
  H      200.773      64.358    -243.020
  H      195.433      64.626    -251.747
  H      197.116      64.960    -251.320
  H      200.042      62.920    -242.335
  P      195.969      63.510    -240.998
  C      197.249      65.570    -240.148
  O      196.058      64.803    -240.048
  O      197.294      62.709    -240.570
  O      194.714      62.696    -240.940
  H      198.091      63.259    -240.699
  H      197.147      66.454    -239.517
  H      197.411      65.882    -241.184
  H      198.100      64.980    -239.797
  H      203.288      65.189    -246.332
  H      203.858      64.363    -244.902
  H      202.342      65.230    -244.863

 3  4  5  6  7  8  9  10  11  12  22  25  29  30  31  32 0
 6-311+G(2d,p)
 ****
 33  36  37 0
 6-311+G(2d,p)
 ****
 1  2  13  14  15  16  17  18  19  20  21  23  24  26 0
 3-21G
 ****
 27  28  34  35  38  39  40  41  42  43  44  45  46  47  48 0
 3-21G
 ****


