%nproc=1
%NoSave
%Mem=1900MB
#P OB98/GEN NMR

erre ene a

0 1
  C      625.831     999.737     321.166
  O      626.646     998.884     320.382
  H      624.783     999.455     321.014
  H      625.962    1000.778     320.855
  H      626.081     999.628     322.223
  P      628.215     999.212     320.381
  C      628.708     997.834     322.540
  O      628.620     999.117     321.933
  C      629.717     997.876     323.693
  O      631.025     998.259     323.212
  C      629.374     998.887     324.777
  O      628.372     998.419     325.666
  C      630.716     999.012     325.462
  O      630.956     997.850     326.288
  C      631.674     999.027     324.247
  N      631.978    1000.378     323.773
  C      632.906    1001.112     324.523
  O      633.424    1000.635     325.531
  N      633.202    1002.393     324.128
  C      632.642    1002.899     323.074
  N      632.966    1004.180     322.733
  C      631.674    1002.160     322.246
  C      631.390    1000.916     322.650
  O      628.273    1000.790     320.107
  O      629.062     998.390     319.456
  H      631.785     998.020     326.778
  H      629.204    1001.115     320.210
  H      631.214    1002.618     321.379
  H      630.683    1000.315     322.093
  H      632.618     998.525     324.482
  H      630.797     999.889     326.117
  H      629.105     999.859     324.351
  H      629.799     996.860     324.099
  H      633.585    1004.684     323.356
  H      629.033     997.114     321.785
  H      632.440    1004.704     322.046
  H      627.732     997.536     322.931
  P      627.579     999.516     326.536
  C      625.398     999.365     325.130
  O      626.485    1000.179     325.556
  O      628.653    1000.693     326.716
  O      627.053     999.023     327.845
  H      628.602    1001.079     327.601
  H      624.757     999.933     324.489
  H      624.845     999.033     325.984
  H      625.775     998.517     324.597

 6  7  8  9  10  11  12  13  14  15  16  26  30  31  32  33  35 0
 6-311+G(2d,p)
 ****
 37  38 0
 6-311+G(2d,p)
 ****
 1  2  3  4  5  17  18  19  20  21  22  23  24  25 0
 3-21G
 ****
 27  28  29  34  36  39  40  41  42  43  44  45  46 0
 3-21G
 ****


