%nproc=1
%NoSave
%Mem=1900MB
#P OB98/GEN NMR

erre ene a

0 1
  C      176.377     -27.052      76.054
  O      175.690     -27.034      74.818
  H      177.212     -27.755      75.980
  H      175.718     -27.375      76.864
  H      176.776     -26.058      76.275
  P      174.266     -26.295      74.755
  C      173.100     -28.581      75.029
  O      173.251     -27.261      75.546
  C      172.623     -29.548      76.111
  O      173.632     -29.716      77.129
  C      171.386     -29.080      76.864
  O      170.210     -29.027      76.090
  C      171.423     -29.960      78.104
  O      170.864     -31.253      77.871
  C      172.947     -30.079      78.349
  N      173.392     -29.267      79.477
  C      173.139     -29.789      80.740
  O      172.556     -30.858      80.932
  N      173.550     -29.022      81.796
  C      174.134     -27.793      81.712
  O      174.461     -27.143      82.700
  C      174.340     -27.272      80.351
  C      173.967     -28.023      79.310
  O      173.794     -25.912      73.384
  O      174.433     -25.054      75.750
  H      170.698     -31.652      78.746
  H      173.716     -24.387      75.613
  H      173.391     -29.390      82.722
  H      174.788     -26.294      80.245
  H      174.112     -27.662      78.294
  H      173.218     -31.123      78.557
  H      170.877     -29.516      78.939
  H      171.563     -28.052      77.208
  H      172.456     -30.525      75.644
  H      174.078     -28.908      74.659
  H      172.391     -28.567      74.195
  P      169.114     -27.874      76.222
  C      167.605     -29.244      77.862
  O      168.349     -28.055      77.619
  O      168.296     -27.587      75.004
  O      170.035     -26.579      76.508
  H      169.594     -25.814      76.086
  H      167.164     -29.196      78.836
  H      168.257     -30.090      77.807
  H      166.835     -29.339      77.126

 6  7  8  9  10  11  12  13  14  15  16  26  31  32  33  34  35 0
 6-311+G(2d,p)
 ****
 36  37 0
 6-311+G(2d,p)
 ****
 1  2  3  4  5  17  18  19  20  21  22  23  24  25 0
 3-21G
 ****
 27  28  29  30  38  39  40  41  42  43  44  45 0
 3-21G
 ****


