%nproc=1
%NoSave
%Mem=1900MB
#P OB98/GEN NMR

erre ene a

0 1
  C        4.712      -3.044      40.744
  O        5.192      -1.716      40.856
  P        6.334      -1.431      41.950
  C        4.463      -0.442      43.456
  O        5.766      -0.276      42.909
  C        4.280       0.400      44.719
  O        2.891       0.340      45.126
  C        5.139      -0.051      45.901
  O        5.561       1.117      46.606
  C        4.167      -0.826      46.769
  O        4.586      -0.858      48.132
  C        2.859      -0.063      46.510
  N        1.681      -0.872      46.804
  C        1.518      -1.292      48.127
  O        2.387      -1.045      48.963
  N        0.405      -2.024      48.457
  C       -0.417      -2.396      47.526
  N       -1.506      -3.118      47.903
  C       -0.215      -2.078      46.099
  C        0.830      -1.303      45.816
  O        7.464      -0.683      41.101
  O        6.855      -2.651      42.637
  H        3.946      -1.409      48.634
  H        8.353      -0.888      41.448
  H       -0.911      -2.444      45.357
  H        1.043      -1.000      44.799
  H        2.817       0.849      47.120
  H        4.087      -1.859      46.408
  H        6.013      -0.633      45.593
  H        4.499       1.445      44.468
  H       -1.614      -3.336      48.885
  H        4.321      -1.493      43.722
  H       -2.199      -3.452      47.247
  H        3.717      -0.176      42.702
  P        7.134       1.420      46.670
  C        7.524       0.086      48.827
  O        7.505       1.366      48.229
  O        7.165       3.000      46.388
  O        8.035       0.688      45.733
  H        8.089       3.305      46.337
  H        7.920       0.179      49.842
  H        8.165      -0.593      48.259
  H        6.508      -0.315      48.883
  H        3.961      -3.089      39.983
  H        4.292      -3.351      41.679
  H        5.521      -3.695      40.485

 3  4  5  6  7  8  9  10  11  12  13  21  23  27  28  29  30  32 0
 6-311+G(2d,p)
 ****
 34  35 0
 6-311+G(2d,p)
 ****
 1  2  14  15  16  17  18  19  20  22  24  25  26 0
 3-21G
 ****
 31  33  36  37  38  39  40  41  42  43  44  45  46 0
 3-21G
 ****


