%nproc=1
%NoSave
%Mem=1900MB
#P OB98/GEN NMR

erre ene a

0 1
  C      630.314     361.091     402.919
  O      630.242     359.840     402.265
  H      631.236     361.132     403.501
  H      629.462     361.205     403.600
  H      630.315     361.902     402.189
  P      629.075     359.669     401.180
  C      626.458     359.515     401.275
  O      627.687     359.520     401.985
  C      625.290     359.432     402.253
  O      625.238     358.134     402.882
  C      625.387     360.392     403.425
  O      625.135     361.732     403.056
  C      624.324     359.819     404.354
  O      623.015     360.293     404.023
  C      624.443     358.298     404.079
  N      625.005     357.587     405.212
  C      624.088     356.798     405.943
  O      622.913     356.747     405.593
  N      624.527     356.147     407.063
  C      625.772     356.286     407.437
  N      626.130     355.638     408.585
  C      626.759     357.095     406.699
  C      626.312     357.710     405.609
  O      629.338     358.189     400.628
  O      629.045     360.722     400.122
  H      622.929     360.204     403.051
  H      629.452     357.524     401.324
  H      627.775     357.160     407.055
  H      626.974     358.327     405.012
  H      623.454     357.874     403.860
  H      624.509     360.092     405.394
  H      626.362     360.296     403.915
  H      624.354     359.584     401.687
  H      625.406     355.133     409.078
  H      626.422     358.683     400.567
  H      627.039     355.730     409.011
  H      626.406     360.442     400.693
  P      625.475     362.948     404.035
  C      623.911     364.164     405.693
  O      624.388     362.900     405.224
  O      625.609     364.285     403.391
  O      626.799     362.446     404.790
  H      626.703     361.618     405.280
  H      623.199     364.008     406.477
  H      623.444     364.691     404.887
  H      624.732     364.739     406.066

 6  7  8  9  10  11  12  13  14  15  16  26  30  31  32  33  35 0
 6-311+G(2d,p)
 ****
 37  38 0
 6-311+G(2d,p)
 ****
 1  2  3  4  5  17  18  19  20  21  22  23  24  25 0
 3-21G
 ****
 27  28  29  34  36  39  40  41  42  43  44  45  46 0
 3-21G
 ****


