%nproc=1
%NoSave
%Mem=1900MB
#P OB98/GEN NMR

erre ene a

0 1
  C       32.249      69.753     -19.045
  O       32.228      70.727     -18.013
  P       33.185      72.007     -18.176
  C       35.694      72.504     -17.675
  O       34.612      71.586     -17.572
  C       37.007      71.813     -17.332
  O       37.039      71.431     -15.940
  C       37.255      70.524     -18.106
  O       37.764      70.766     -19.410
  C       38.316      69.862     -17.238
  O       39.607      70.436     -17.516
  C       37.855      70.239     -15.824
  N       38.087      66.274     -12.683
  C       39.033      67.243     -12.957
  N       40.235      67.097     -12.354
  N       38.823      68.262     -13.749
  C       37.580      68.272     -14.290
  C       36.556      67.373     -14.095
  C       36.806      66.243     -13.223
  O       36.026      65.327     -12.983
  N       35.441      67.724     -14.805
  C       35.784      68.831     -15.432
  N       37.086      69.183     -15.187
  O       32.616      73.033     -17.087
  O       33.210      72.598     -19.543
  H       40.227      70.067     -16.853
  H       32.939      73.937     -17.278
  H       38.299      65.505     -12.071
  H       35.130      69.403     -16.085
  H       38.700      70.485     -15.171
  H       38.400      68.786     -17.417
  H       40.478      66.299     -11.782
  H       36.356      69.893     -18.128
  H       40.969      67.752     -12.586
  H       37.822      72.530     -17.504
  H       35.524      73.336     -16.986
  H       35.728      72.906     -18.694
  P       37.305      69.745     -20.564
  C       37.491      67.158     -20.737
  O       38.030      68.359     -20.214
  O       38.092      70.283     -21.849
  O       35.831      69.682     -20.786
  H       37.616      70.036     -22.666
  H       38.237      66.364     -20.631
  H       37.241      67.263     -21.794
  H       36.599      66.876     -20.172
  H       31.568      68.964     -18.804
  H       33.238      69.355     -19.139
  H       31.957      70.206     -19.969

 3  4  5  6  7  8  9  10  11  12  23  26  30  31 0
 6-311+G(2d,p)
 ****
 33  35  36  37  38 0
 6-311+G(2d,p)
 ****
 1  2  13  14  15  16  17  18  19  20  21  22  24  25 0
 3-21G
 ****
 27  28  29  32  34  39  40  41  42  43  44  45  46  47  48  49 0
 3-21G
 ****


