%nproc=1
%NoSave
%Mem=1900MB
#P OB98/GEN NMR

erre ene a

0 1
  C     -427.794    -100.102     444.949
  O     -428.646    -100.612     443.942
  P     -428.145    -100.720     442.423
  C     -429.980     -99.042     441.709
  O     -428.573     -99.332     441.733
  C     -430.227     -97.588     441.306
  O     -429.886     -96.694     442.397
  C     -429.402     -97.116     440.123
  O     -429.937     -97.609     438.910
  C     -429.475     -95.601     440.284
  O     -430.698     -95.087     439.739
  C     -429.463     -95.445     441.829
  N     -428.153     -95.037     442.330
  C     -427.737     -93.753     441.990
  O     -428.447     -93.033     441.284
  N     -426.504     -93.309     442.425
  C     -425.749     -94.106     443.119
  N     -424.534     -93.622     443.515
  C     -426.131     -95.486     443.475
  C     -427.336     -95.890     443.044
  O     -428.561    -101.955     441.697
  O     -426.546    -100.575     442.555
  H     -430.754     -94.152     440.036
  H     -426.132    -101.391     442.923
  H     -425.459     -96.119     444.038
  H     -427.698     -96.884     443.249
  H     -430.198     -94.696     442.142
  H     -428.648     -95.083     439.788
  H     -428.353     -97.441     440.246
  H     -431.299     -97.473     441.090
  H     -424.301     -92.690     443.227
  H     -430.380     -99.222     442.710
  H     -423.854     -94.166     444.021
  H     -430.469     -99.730     441.005
  P     -428.987     -97.817     437.634
  C     -429.905     -95.762     436.395
  O     -428.752     -96.380     436.952
  O     -429.393     -98.903     436.701
  O     -427.549     -98.133     438.283
  H     -427.137     -98.879     437.802
  H     -429.709     -94.697     436.269
  H     -430.785     -95.895     437.056
  H     -430.127     -96.195     435.419
  H     -428.307    -100.110     445.888
  H     -427.514     -99.099     444.705
  H     -426.917    -100.711     445.016

 3  4  5  6  7  8  9  10  11  12  13  23  27  28  29  30  32 0
 6-311+G(2d,p)
 ****
 34  35 0
 6-311+G(2d,p)
 ****
 1  2  14  15  16  17  18  19  20  21  22  24  25  26 0
 3-21G
 ****
 31  33  36  37  38  39  40  41  42  43  44  45  46 0
 3-21G
 ****


