%nproc=1
%NoSave
%Mem=1900MB
#P OB98/GEN NMR

erre ene a

0 1
  C      831.935     580.824     218.542
  O      832.434     581.923     219.278
  P      832.794     583.258     218.471
  C      833.739     584.361     220.652
  O      833.965     583.998     219.290
  C      834.769     583.685     221.552
  O      834.790     582.269     221.295
  C      836.200     584.156     221.362
  O      836.415     585.436     221.961
  C      836.970     583.017     222.014
  O      836.946     583.154     223.435
  C      836.137     581.795     221.598
  N      838.500     577.577     219.874
  C      838.131     577.961     221.110
  N      837.520     579.096     221.504
  C      837.301     579.886     220.423
  C      837.658     579.653     219.116
  C      838.259     578.422     218.841
  N      838.644     578.023     217.562
  N      837.272     580.690     218.300
  C      836.706     581.571     219.112
  N      836.693     581.124     220.420
  O      831.510     584.208     218.748
  O      833.042     583.082     216.998
  H      836.005     583.274     223.688
  H      831.315     584.770     217.969
  H      838.329     577.234     221.921
  H      836.283     582.524     218.828
  H      836.056     581.038     222.383
  H      838.020     582.977     221.702
  H      836.444     584.198     220.269
  H      834.451     583.827     222.602
  H      832.734     584.047     220.938
  H      839.222     577.212     217.489
  H      838.583     578.718     216.824
  H      833.793     585.447     220.729
  P      837.547     586.378     221.324
  C      837.254     588.095     223.216
  O      838.135     587.169     222.587
  O      836.669     587.499     220.587
  O      838.559     585.665     220.466
  H      835.969     587.850     221.163
  H      837.755     588.528     224.101
  H      836.334     587.585     223.554
  H      837.003     588.898     222.536
  H      831.740     580.009     219.207
  H      832.659     580.525     217.813
  H      831.028     581.107     218.049

 3  4  5  6  7  8  9  10  11  12  22  25  29  30  31  32 0
 6-311+G(2d,p)
 ****
 33  36  37 0
 6-311+G(2d,p)
 ****
 1  2  13  14  15  16  17  18  19  20  21  23  24  26 0
 3-21G
 ****
 27  28  34  35  38  39  40  41  42  43  44  45  46  47  48 0
 3-21G
 ****


