%nproc=1
%NoSave
%Mem=1900MB
#P OB98/GEN NMR

erre ene a

0 1
  C     -536.069     604.048     727.616
  O     -535.815     605.428     727.391
  H     -535.333     603.456     727.062
  H     -537.066     603.774     727.252
  H     -535.986     603.819     728.680
  P     -536.869     606.493     727.960
  C     -536.754     608.998     728.586
  O     -536.045     607.855     728.130
  C     -536.160     610.272     727.989
  O     -534.828     610.485     728.508
  C     -536.005     610.201     726.474
  O     -537.255     610.391     725.829
  C     -534.984     611.308     726.249
  O     -535.594     612.598     726.256
  C     -534.051     611.123     727.468
  N     -532.859     610.334     727.166
  C     -532.018     610.872     726.179
  O     -532.283     611.945     725.636
  N     -530.896     610.147     725.824
  C     -530.636     609.023     726.406
  N     -529.504     608.374     726.004
  C     -531.492     608.431     727.453
  C     -532.583     609.133     727.773
  O     -537.650     606.092     729.164
  O     -537.817     606.798     726.700
  H     -536.089     612.663     725.421
  H     -538.572     606.180     726.681
  H     -531.236     607.485     727.910
  H     -533.262     608.772     728.529
  H     -533.721     612.092     727.863
  H     -534.469     611.181     725.287
  H     -535.549     609.258     726.176
  H     -536.789     611.118     728.288
  H     -528.954     608.794     725.283
  H     -536.681     609.025     729.680
  H     -529.165     607.521     726.445
  H     -537.820     608.920     728.321
  P     -537.378     610.236     724.236
  C     -539.489     610.036     722.772
  O     -538.845     609.631     723.979
  O     -536.258     609.498     723.583
  O     -537.518     611.745     723.744
  H     -536.656     612.230     723.782
  H     -540.452     609.574     722.709
  H     -538.895     609.738     721.933
  H     -539.603     611.100     722.768

 6  7  8  9  10  11  12  13  14  15  16  26  30  31  32  33  35 0
 6-311+G(2d,p)
 ****
 37  38 0
 6-311+G(2d,p)
 ****
 1  2  3  4  5  17  18  19  20  21  22  23  24  25 0
 3-21G
 ****
 27  28  29  34  36  39  40  41  42  43  44  45  46 0
 3-21G
 ****


