%nproc=1
%NoSave
%Mem=1900MB
#P OB98/GEN NMR

erre ene a

0 1
  C     -899.000    -677.630    -124.286
  O     -897.920    -678.281    -124.914
  P     -896.670    -678.708    -123.984
  C     -897.040    -681.270    -123.758
  O     -897.150    -679.987    -123.142
  C     -896.190    -682.216    -122.917
  O     -894.810    -681.760    -122.943
  C     -896.620    -682.317    -121.451
  O     -896.430    -683.670    -121.031
  C     -895.620    -681.437    -120.729
  O     -895.490    -681.805    -119.352
  C     -894.360    -681.639    -121.576
  N     -893.410    -680.544    -121.421
  C     -892.650    -680.532    -120.248
  O     -892.850    -681.373    -119.376
  N     -891.710    -679.543    -120.077
  C     -891.620    -678.587    -120.950
  N     -890.680    -677.627    -120.737
  C     -892.500    -678.496    -122.139
  C     -893.340    -679.508    -122.325
  O     -896.620    -677.538    -122.894
  O     -895.370    -678.850    -124.716
  H     -894.730    -681.292    -118.979
  H     -895.710    -677.372    -122.601
  H     -892.400    -677.656    -122.819
  H     -894.000    -679.540    -123.176
  H     -893.860    -682.579    -121.309
  H     -895.950    -680.390    -120.767
  H     -897.660    -682.026    -121.299
  H     -896.210    -683.205    -123.386
  H     -890.100    -677.708    -119.907
  H     -896.570    -681.152    -124.735
  H     -890.530    -676.845    -121.361
  H     -898.050    -681.677    -123.908
  P     -897.420    -684.244    -119.905
  C     -898.980    -685.867    -121.146
  O     -898.790    -684.548    -120.675
  O     -897.790    -682.912    -119.093
  O     -896.910    -685.307    -118.988
  H     -898.350    -683.136    -118.331
  H     -900.000    -685.962    -121.524
  H     -898.820    -686.585    -120.347
  H     -898.280    -686.064    -121.968
  H     -899.753    -677.406    -125.013
  H     -898.656    -676.722    -123.836
  H     -899.411    -678.268    -123.532

 3  4  5  6  7  8  9  10  11  12  13  21  23  27  28  29  30  32 0
 6-311+G(2d,p)
 ****
 34  35 0
 6-311+G(2d,p)
 ****
 1  2  14  15  16  17  18  19  20  22  24  25  26 0
 3-21G
 ****
 31  33  36  37  38  39  40  41  42  43  44  45  46 0
 3-21G
 ****


