%nproc=1
%NoSave
%Mem=1900MB
#P OB98/GEN NMR

erre ene a

0 1
  C      177.747     -84.708    -362.456
  O      178.133     -84.586    -361.080
  P      177.405     -83.429    -360.220
  C      179.536     -82.289    -359.278
  O      178.361     -83.034    -358.989
  C      180.783     -82.908    -358.616
  O      180.740     -82.733    -357.176
  C      180.946     -84.409    -358.903
  O      182.344     -84.671    -358.971
  C      180.378     -85.048    -357.639
  O      180.856     -86.378    -357.487
  C      180.861     -84.038    -356.568
  N      180.110     -84.140    -355.324
  C      180.544     -85.080    -354.387
  O      181.485     -85.847    -354.659
  N      179.894     -85.179    -353.179
  C      178.856     -84.432    -352.945
  N      178.250     -84.566    -351.745
  C      178.328     -83.458    -353.932
  C      178.994     -83.360    -355.066
  O      176.181     -84.195    -359.526
  O      176.930     -82.281    -361.059
  H      180.805     -86.628    -356.533
  H      175.355     -83.701    -359.666
  H      177.440     -82.863    -353.705
  H      178.678     -82.678    -355.852
  H      181.920     -84.208    -356.337
  H      179.281     -85.072    -357.676
  H      180.449     -84.728    -359.816
  H      181.653     -82.371    -358.992
  H      178.639     -85.238    -351.089
  H      179.411     -81.264    -358.923
  H      177.434     -84.043    -351.458
  H      179.658     -82.228    -360.361
  P      183.026     -84.750    -360.414
  C      182.497     -87.221    -360.926
  O      183.513     -86.273    -360.567
  O      184.446     -84.021    -360.132
  O      182.315     -84.146    -361.582
  H      184.934     -83.930    -360.970
  H      182.979     -88.181    -361.110
  H      181.990     -86.897    -361.834
  H      181.789     -87.339    -360.094
  H      178.297     -85.505    -362.912
  H      177.956     -83.792    -362.968
  H      176.700     -84.919    -362.515

 3  4  5  6  7  8  9  10  11  12  13  21  23  27  28  29  30  32 0
 6-311+G(2d,p)
 ****
 34  35 0
 6-311+G(2d,p)
 ****
 1  2  14  15  16  17  18  19  20  22  24  25  26 0
 3-21G
 ****
 31  33  36  37  38  39  40  41  42  43  44  45  46 0
 3-21G
 ****


