%nproc=1
%NoSave
%Mem=1900MB
#P OB98/GEN NMR

erre ene a

0 1
  C      -92.006    -676.841     329.520
  O      -91.148    -677.783     330.138
  P      -89.553    -677.621     330.069
  C      -89.137    -679.741     331.460
  O      -88.977    -679.115     330.200
  C      -88.590    -681.171     331.413
  O      -89.482    -681.967     330.601
  C      -87.212    -681.332     330.773
  O      -86.122    -681.096     331.654
  C      -87.248    -682.809     330.401
  O      -86.988    -683.611     331.573
  C      -88.691    -682.995     329.943
  N      -88.432    -685.468     325.469
  C      -88.265    -685.883     326.748
  N      -88.328    -685.157     327.886
  C      -88.650    -683.885     327.610
  C      -88.859    -683.321     326.366
  C      -88.739    -684.168     325.258
  N      -88.939    -683.749     323.957
  N      -89.153    -681.971     326.487
  C      -89.129    -681.738     327.785
  N      -88.839    -682.865     328.505
  O      -88.989    -676.624     331.026
  O      -89.259    -677.253     328.547
  H      -86.946    -684.539     331.280
  H      -88.362    -676.877     328.455
  H      -88.035    -686.939     326.873
  H      -89.315    -680.781     328.247
  H      -89.109    -683.966     330.238
  H      -86.484    -683.076     329.656
  H      -87.123    -680.733     329.862
  H      -88.598    -681.579     332.429
  H      -90.208    -679.777     331.699
  H      -88.958    -684.452     323.243
  H      -89.320    -682.823     323.811
  H      -88.632    -679.154     332.234
  P      -84.934    -680.152     331.115
  C      -83.701    -680.404     333.406
  O      -83.651    -680.527     332.005
  O      -85.272    -678.707     331.054
  O      -84.597    -680.797     329.684
  H      -84.202    -681.682     329.713
  H      -82.794    -680.858     333.831
  H      -84.565    -680.922     333.816
  H      -83.721    -679.354     333.694
  H      -93.024    -677.127     329.680
  H      -91.805    -676.811     328.469
  H      -91.837    -675.873     329.943

 3  4  5  6  7  8  9  10  11  12  22  25  29  30  31  32 0
 6-311+G(2d,p)
 ****
 33  36  37 0
 6-311+G(2d,p)
 ****
 1  2  13  14  15  16  17  18  19  20  21  23  24  26 0
 3-21G
 ****
 27  28  34  35  38  39  40  41  42  43  44  45  46  47  48 0
 3-21G
 ****


