%nproc=1
%NoSave
%Mem=1900MB
#P OB98/GEN NMR

erre ene a

0 1
  C      414.742     223.788      80.375
  O      415.025     224.833      79.461
  P      415.392     226.274      80.070
  C      414.077     228.033      78.683
  O      415.297     227.330      78.865
  C      414.176     229.001      77.504
  O      414.910     230.185      77.928
  C      414.896     228.434      76.270
  O      414.254     229.000      75.123
  C      416.300     228.983      76.442
  O      417.085     228.942      75.263
  C      415.986     230.374      76.983
  N      420.519     232.598      76.190
  C      419.582     232.135      75.333
  N      418.392     231.560      75.619
  C      418.205     231.499      76.946
  C      419.075     231.911      77.941
  C      420.284     232.488      77.519
  N      421.242     232.952      78.397
  N      418.551     231.660      79.190
  C      417.381     231.098      78.956
  N      417.121     231.001      77.617
  O      416.964     226.162      80.337
  O      414.637     226.647      81.307
  H      417.903     229.464      75.387
  H      417.213     226.612      81.167
  H      419.818     232.235      74.278
  H      416.697     230.738      79.712
  H      415.625     231.048      76.195
  H      416.826     228.386      77.196
  H      414.849     227.343      76.205
  H      413.162     229.324      77.236
  H      413.854     228.611      79.585
  H      422.148     233.160      78.002
  H      421.150     232.678      79.367
  H      413.263     227.315      78.536
  P      413.756     228.024      73.951
  C      415.743     228.542      72.406
  O      414.352     228.687      72.614
  O      412.211     228.432      73.851
  O      414.005     226.570      74.164
  H      412.099     229.396      73.777
  H      415.993     228.950      71.424
  H      416.024     227.486      72.435
  H      416.294     229.099      73.171
  H      414.516     222.893      79.834
  H      413.903     224.061      80.980
  H      415.594     223.621      81.001

 3  4  5  6  7  8  9  10  11  12  22  25  29  30  31  32 0
 6-311+G(2d,p)
 ****
 33  36  37 0
 6-311+G(2d,p)
 ****
 1  2  13  14  15  16  17  18  19  20  21  23  24  26 0
 3-21G
 ****
 27  28  34  35  38  39  40  41  42  43  44  45  46  47  48 0
 3-21G
 ****


