%nproc=1
%NoSave
%Mem=1900MB
#P OB98/GEN NMR

erre ene a

0 1
  C       64.925     114.858      51.666
  O       64.120     115.904      51.112
  P       63.156     115.576      49.874
  C       61.016     114.506      50.835
  O       61.628     115.693      50.354
  C       59.770     114.831      51.681
  O       60.100     115.833      52.677
  C       58.600     115.368      50.837
  O       57.372     114.681      51.082
  C       58.599     116.858      51.142
  O       57.337     117.471      50.918
  C       59.150     116.914      52.572
  N       59.751     118.214      52.883
  C       58.972     119.098      53.627
  O       57.810     118.867      53.952
  N       59.561     120.299      53.925
  C       60.785     120.721      53.508
  O       61.245     121.827      53.766
  C       61.537     119.770      52.671
  C       60.990     118.577      52.403
  O       63.488     114.339      49.102
  O       63.321     116.879      48.941
  H       56.696     117.097      51.558
  H       63.328     116.585      48.008
  H       59.017     120.945      54.478
  H       62.503     120.076      52.299
  H       61.518     117.862      51.783
  H       58.357     116.741      53.306
  H       59.318     117.350      50.473
  H       58.775     115.219      49.764
  H       59.479     113.909      52.196
  H       61.724     113.953      51.455
  H       60.776     113.850      49.990
  P       56.673     113.678      50.050
  C       58.882     112.497      49.378
  O       57.584     112.367      49.929
  O       56.252     114.277      48.743
  O       55.386     113.159      50.861
  H       54.621     113.103      50.249
  H       59.215     111.516      49.027
  H       59.574     112.842      50.154
  H       58.900     113.201      48.536
  H       65.504     115.245      52.478
  H       65.581     114.475      50.912
  H       64.293     114.072      52.022

 3  4  5  6  7  8  9  10  11  12  13  23  28  29  30  31  32 0
 6-311+G(2d,p)
 ****
 33  34 0
 6-311+G(2d,p)
 ****
 1  2  14  15  16  17  18  19  20  21  22  24  25  26  27 0
 3-21G
 ****
 35  36  37  38  39  40  41  42  43  44  45 0
 3-21G
 ****


