%nproc=1
%NoSave
%Mem=1900MB
#P OB98/GEN NMR

erre ene a

0 1
  C      -50.311      24.944     401.279
  O      -51.309      24.911     400.257
  P      -51.577      26.086     399.211
  C      -54.174      25.776     399.425
  O      -53.036      25.879     398.586
  C      -55.295      24.898     398.826
  O      -54.803      23.546     398.637
  C      -56.473      24.798     399.792
  O      -57.458      25.827     399.827
  C      -57.046      23.407     399.559
  O      -58.120      23.395     398.624
  C      -55.850      22.621     399.010
  N      -55.147      17.673     400.118
  C      -55.810      18.242     399.043
  N      -56.404      17.401     398.184
  N      -55.891      19.538     398.851
  C      -55.327      20.271     399.837
  C      -54.670      19.827     400.962
  C      -54.524      18.391     401.139
  O      -53.940      17.838     402.059
  N      -54.242      20.862     401.744
  C      -54.676      21.948     401.115
  N      -55.339      21.636     399.943
  O      -50.464      26.374     398.260
  O      -51.758      27.386     400.152
  H      -57.767      23.622     397.746
  H      -51.404      28.151     399.653
  H      -55.089      16.673     400.212
  H      -54.531      22.958     401.460
  H      -56.117      22.072     398.096
  H      -57.448      22.995     400.497
  H      -56.480      16.412     398.341
  H      -56.052      24.779     400.804
  H      -57.067      17.810     397.524
  H      -55.579      25.265     397.828
  H      -54.539      26.788     399.595
  H      -53.883      25.373     400.402
  P      -58.025      26.536     401.142
  C      -60.544      26.416     400.672
  O      -59.404      27.260     400.759
  O      -57.034      27.779     401.370
  O      -58.079      25.675     402.363
  H      -57.119      28.130     402.278
  H      -61.331      26.949     400.111
  H      -60.911      26.187     401.672
  H      -60.302      25.483     400.149
  H      -50.344      24.033     401.839
  H      -50.497      25.771     401.932
  H      -49.345      25.053     400.831

 3  4  5  6  7  8  9  10  11  12  23  26  30  31 0
 6-311+G(2d,p)
 ****
 33  35  36  37  38 0
 6-311+G(2d,p)
 ****
 1  2  13  14  15  16  17  18  19  20  21  22  24  25 0
 3-21G
 ****
 27  28  29  32  34  39  40  41  42  43  44  45  46  47  48  49 0
 3-21G
 ****


