%nproc=1
%NoSave
%Mem=1900MB
#P OB98/GEN NMR

erre ene a

0 1
  C      -92.928      41.107       4.315
  O      -92.224      40.000       4.834
  H      -92.608      42.008       4.845
  H      -94.001      40.974       4.473
  H      -92.721      41.232       3.249
  P      -92.419      38.589       4.096
  C      -94.450      37.146       3.368
  O      -94.002      38.335       4.001
  C      -95.968      37.011       3.501
  O      -96.303      36.869       4.906
  C      -96.742      38.213       2.952
  O      -97.930      37.738       2.313
  C      -97.116      38.998       4.196
  O      -98.275      39.809       4.006
  C      -97.277      37.879       5.233
  N      -97.103      38.380       6.593
  C      -98.268      38.666       7.310
  O      -99.373      38.502       6.789
  N      -98.158      39.185       8.575
  C      -96.987      39.475       9.050
  N      -96.944      40.015      10.298
  C      -95.733      39.254       8.302
  C      -95.864      38.702       7.096
  O      -91.944      37.528       5.194
  O      -91.689      38.436       2.804
  H      -98.178      40.292       3.157
  H      -91.545      36.741       4.777
  H      -94.783      39.536       8.730
  H      -95.001      38.508       6.471
  H      -98.271      37.419       5.152
  H      -96.287      39.658       4.476
  H      -96.163      38.812       2.245
  H      -96.279      36.085       3.003
  H      -97.827      40.169      10.771
  H      -93.975      36.285       3.849
  H      -96.094      40.321      10.747
  H      -94.160      37.164       2.312
  P      -98.095      38.078       0.755
  C      -98.843      40.111      -0.677
  O      -98.633      39.583       0.625
  O      -99.348      37.186       0.313
  O      -96.882      37.765      -0.058
  H      -99.050      36.445      -0.247
  H      -99.200      41.117      -0.601
  H      -99.567      39.514      -1.192
  H      -97.921      40.100      -1.219

 6  7  8  9  10  11  12  13  14  15  16  26  30  31  32  33  35 0
 6-311+G(2d,p)
 ****
 37  38 0
 6-311+G(2d,p)
 ****
 1  2  3  4  5  17  18  19  20  21  22  23  24  25 0
 3-21G
 ****
 27  28  29  34  36  39  40  41  42  43  44  45  46 0
 3-21G
 ****


