%nproc=1
%NoSave
%Mem=1900MB
#P OB98/GEN NMR

erre ene a

0 1
  C     -346.774     877.723     699.298
  O     -346.386     879.017     698.882
  H     -346.051     877.357     700.029
  H     -346.782     877.038     698.440
  H     -347.765     877.742     699.764
  P     -347.374     879.855     697.947
  C     -346.013     881.338     696.322
  O     -346.629     881.234     697.605
  C     -345.121     882.587     696.253
  O     -345.925     883.750     696.622
  C     -343.914     882.554     697.199
  O     -342.865     883.328     696.583
  C     -344.479     883.268     698.419
  O     -343.485     883.623     699.346
  C     -345.231     884.403     697.710
  N     -346.163     885.148     698.534
  C     -346.007     886.530     698.617
  O     -345.132     887.163     698.023
  N     -346.895     887.192     699.416
  C     -347.917     886.626     700.120
  O     -348.706     887.271     700.795
  C     -348.033     885.170     700.007
  C     -347.171     884.503     699.234
  O     -348.774     880.007     698.442
  O     -347.329     879.068     696.549
  H     -348.131     878.520     696.449
  H     -342.913     884.321     698.947
  H     -346.797     888.192     699.480
  H     -348.825     884.678     700.562
  H     -347.235     883.432     699.127
  H     -344.515     885.102     697.253
  H     -345.169     882.612     698.947
  H     -343.547     881.546     697.403
  H     -344.809     882.733     695.214
  H     -346.803     881.400     695.568
  H     -345.415     880.438     696.144
  P     -342.168     882.920     695.190
  C     -339.701     883.678     694.988
  O     -341.072     884.036     694.845
  O     -343.138     882.657     694.085
  O     -341.310     881.611     695.523
  H     -341.197     881.078     694.704
  H     -339.085     884.513     694.726
  H     -339.478     882.854     694.343
  H     -339.509     883.398     696.003

 6  7  8  9  10  11  12  13  14  15  16  27  31  32  33  34  35 0
 6-311+G(2d,p)
 ****
 36  37 0
 6-311+G(2d,p)
 ****
 1  2  3  4  5  17  18  19  20  21  22  23  24  25 0
 3-21G
 ****
 26  28  29  30  38  39  40  41  42  43  44  45 0
 3-21G
 ****


