%nproc=1
%NoSave
%Mem=1900MB
#P OB98/GEN NMR

erre ene a

0 1
  C     -685.600    -126.338     247.914
  O     -685.587    -127.267     246.852
  H     -686.629    -126.228     248.268
  H     -685.246    -125.367     247.555
  H     -684.977    -126.670     248.748
  P     -684.203    -127.960     246.453
  C     -683.380    -126.134     244.824
  O     -683.158    -126.803     246.062
  C     -682.246    -125.157     244.500
  O     -682.080    -124.223     245.588
  C     -680.897    -125.866     244.315
  O     -680.655    -126.334     243.005
  C     -679.913    -124.763     244.697
  O     -679.570    -123.954     243.557
  C     -680.683    -123.937     245.729
  N     -679.517    -122.045     250.336
  C     -679.755    -121.364     249.156
  N     -679.620    -120.018     249.210
  N     -680.064    -121.958     248.033
  C     -680.065    -123.309     248.116
  C     -679.827    -124.092     249.225
  C     -679.555    -123.422     250.481
  O     -679.359    -123.974     251.554
  N     -679.872    -125.430     248.920
  C     -680.042    -125.452     247.611
  N     -680.244    -124.194     247.092
  O     -684.516    -128.635     245.035
  O     -683.688    -128.981     247.422
  H     -679.090    -123.161     243.881
  H     -683.981    -129.444     244.930
  H     -679.311    -121.531     251.173
  H     -680.074    -126.345     247.002
  H     -680.558    -122.861     245.554
  H     -678.977    -125.190     245.073
  H     -679.298    -119.518     250.021
  H     -680.790    -126.682     245.037
  H     -679.600    -119.502     248.324
  H     -682.517    -124.573     243.610
  H     -684.320    -125.588     244.931
  H     -683.506    -126.858     244.016
  P     -679.780    -127.648     242.747
  C     -677.457    -126.425     242.625
  O     -678.289    -127.364     243.260
  O     -679.619    -127.678     241.158
  O     -680.355    -128.915     243.283
  H     -680.262    -128.296     240.763
  H     -676.511    -126.392     243.124
  H     -677.915    -125.459     242.664
  H     -677.312    -126.710     241.604

 6  7  8  9  10  11  12  13  14  15  26  29  33  34 0
 6-311+G(2d,p)
 ****
 36  38  39  40  41 0
 6-311+G(2d,p)
 ****
 1  2  3  4  5  16  17  18  19  20  21  22  23  24  25 0
 3-21G
 ****
 27  28  30  31  32  35  37  42  43  44  45  46  47 0
 3-21G
 ****
 48  49 0
 3-21G
 ****


