%nproc=1
%NoSave
%Mem=1900MB
#P OB98/GEN NMR

erre ene a

0 1
  C      860.339     170.622     189.786
  O      860.391     170.329     191.176
  P      861.600     169.487     191.802
  C      859.860     167.687     192.386
  O      860.959     168.462     192.859
  C      859.178     166.970     193.557
  O      859.966     165.791     193.911
  C      859.054     167.845     194.821
  O      857.734     167.939     195.365
  C      860.099     167.259     195.751
  O      859.896     167.561     197.120
  C      860.061     165.779     195.352
  N      861.244     165.037     195.830
  C      861.212     164.586     197.135
  O      860.272     164.735     197.914
  N      862.357     163.956     197.567
  C      863.537     163.855     196.895
  O      864.530     163.379     197.375
  C      863.508     164.410     195.514
  C      862.373     164.939     195.038
  O      862.736     170.295     192.351
  O      862.029     168.512     190.602
  H      858.985     167.276     197.354
  H      861.322     167.918     190.287
  H      862.356     163.625     198.516
  H      864.427     164.356     194.949
  H      862.334     165.343     194.034
  H      859.173     165.288     195.737
  H      861.082     167.688     195.467
  H      859.319     168.898     194.594
  H      858.191     166.631     193.219
  H      860.227     166.940     191.682
  H      859.158     168.329     191.856
  P      857.160     169.177     196.192
  C      856.758     167.883     198.400
  O      856.197     168.615     197.336
  O      856.575     170.284     195.359
  O      858.432     169.716     197.013
  H      858.342     170.673     197.161
  H      855.998     167.182     198.785
  H      857.022     168.560     199.213
  H      857.635     167.321     198.093
  H      859.457     171.190     189.574
  H      860.317     169.708     189.229
  H      861.203     171.188     189.508

 3  4  5  6  7  8  9  10  11  12  13  23  28  29  30  31  32 0
 6-311+G(2d,p)
 ****
 33  34 0
 6-311+G(2d,p)
 ****
 1  2  14  15  16  17  18  19  20  21  22  24  25  26  27 0
 3-21G
 ****
 35  36  37  38  39  40  41  42  43  44  45 0
 3-21G
 ****


