%nproc=1
%NoSave
%Mem=1900MB
#P OB98/GEN NMR

erre ene a

0 1
  C     -278.249     164.278     133.515
  O     -276.982     163.660     133.298
  P     -276.576     162.445     134.261
  C     -274.548     163.630     135.431
  O     -275.839     163.060     135.548
  C     -273.606     163.089     136.527
  O     -273.899     163.788     137.766
  C     -273.759     161.607     136.847
  O     -272.587     161.162     137.533
  C     -274.931     161.617     137.807
  O     -275.007     160.409     138.560
  C     -274.678     162.906     138.624
  N     -275.919     163.586     139.056
  C     -276.557     163.135     140.210
  O     -276.147     162.196     140.895
  N     -277.721     163.770     140.544
  C     -278.277     164.821     139.880
  O     -279.370     165.297     140.173
  C     -277.499     165.347     138.755
  C     -276.381     164.710     138.391
  O     -275.407     161.702     133.457
  O     -277.708     161.525     134.582
  H     -274.133     160.299     138.994
  H     -275.744     160.871     133.068
  H     -278.223     163.411     141.341
  H     -277.876     166.225     138.240
  H     -275.801     165.076     137.547
  H     -274.092     162.690     139.524
  H     -275.867     161.707     137.244
  H     -273.948     160.970     135.979
  H     -272.569     163.324     136.255
  H     -274.612     164.720     135.491
  H     -274.127     163.395     134.446
  P     -271.623     160.125     136.776
  C     -271.956     158.032     138.232
  O     -272.255     158.669     137.004
  O     -270.163     160.250     137.072
  O     -271.939     160.407     135.232
  H     -271.211     160.063     134.675
  H     -272.785     157.368     138.497
  H     -271.810     158.760     139.037
  H     -271.043     157.434     138.114
  H     -278.387     165.067     132.806
  H     -278.285     164.679     134.506
  H     -279.025     163.551     133.396

 3  4  5  6  7  8  9  10  11  12  13  23  28  29  30  31  32 0
 6-311+G(2d,p)
 ****
 33  34 0
 6-311+G(2d,p)
 ****
 1  2  14  15  16  17  18  19  20  21  22  24  25  26  27 0
 3-21G
 ****
 35  36  37  38  39  40  41  42  43  44  45 0
 3-21G
 ****


