%nproc=1
%NoSave
%Mem=1900MB
#P OB98/GEN NMR

erre ene a

0 1
  C       59.514      53.973     -72.346
  O       59.100      53.706     -71.017
  P       58.392      54.832     -70.114
  C       60.606      56.168     -70.052
  O       59.583      55.535     -69.303
  C       61.752      56.594     -69.132
  O       62.825      57.134     -69.947
  C       61.370      57.665     -68.101
  O       62.120      57.396     -66.911
  C       61.844      58.948     -68.755
  O       62.051      59.995     -67.818
  C       63.115      58.459     -69.460
  N       63.525      59.340     -70.547
  C       64.609      60.190     -70.322
  O       65.182      60.210     -69.232
  N       65.027      61.008     -71.343
  C       64.368      61.038     -72.459
  N       64.858      61.819     -73.459
  C       63.153      60.236     -72.700
  C       62.809      59.405     -71.721
  O       57.268      54.341     -69.270
  O       57.982      55.971     -71.155
  H       62.377      60.779     -68.301
  H       57.108      55.801     -71.589
  H       62.621      60.317     -73.638
  H       61.946      58.761     -71.819
  H       63.933      58.358     -68.737
  H       61.096      59.288     -69.479
  H       60.302      57.661     -67.863
  H       62.142      55.701     -68.628
  H       65.781      62.214     -73.317
  H       60.186      57.058     -70.528
  H       64.604      61.649     -74.426
  H       60.962      55.492     -70.837
  P       61.314      57.107     -65.553
  C       60.563      59.532     -65.017
  O       61.367      58.431     -64.652
  O       62.331      56.135     -64.775
  O       59.986      56.440     -65.697
  H       61.825      55.579     -64.154
  H       60.721      60.335     -64.292
  H       59.505      59.255     -65.002
  H       60.838      59.896     -66.009
  H       59.959      53.094     -72.764
  H       60.230      54.768     -72.344
  H       58.666      54.258     -72.933

 3  4  5  6  7  8  9  10  11  12  13  23  27  28  29  30  32 0
 6-311+G(2d,p)
 ****
 34  35 0
 6-311+G(2d,p)
 ****
 1  2  14  15  16  17  18  19  20  21  22  24  25  26 0
 3-21G
 ****
 31  33  36  37  38  39  40  41  42  43  44  45  46 0
 3-21G
 ****


