%nproc=1
%NoSave
%Mem=1900MB
#P OB98/GEN NMR

erre ene a

0 1
  C      153.187    -297.511    -176.593
  O      152.345    -298.606    -176.307
  H      152.929    -296.688    -175.920
  H      153.026    -297.185    -177.623
  H      154.240    -297.767    -176.449
  P      152.777    -300.061    -176.814
  C      154.210    -300.410    -174.695
  O      154.179    -300.428    -176.116
  C      155.497    -301.030    -174.147
  O      155.482    -301.013    -172.703
  C      155.655    -302.496    -174.553
  O      156.223    -302.712    -175.832
  C      156.567    -303.027    -173.452
  O      157.949    -302.786    -173.769
  C      156.143    -302.203    -172.233
  N      155.161    -303.671    -167.439
  C      156.240    -302.961    -167.927
  N      157.207    -302.652    -167.033
  N      156.362    -302.605    -169.181
  C      155.367    -303.064    -169.973
  C      154.254    -303.788    -169.609
  C      154.101    -304.131    -168.207
  O      153.167    -304.766    -167.725
  N      153.460    -304.070    -170.695
  C      154.128    -303.586    -171.719
  N      155.279    -302.938    -171.331
  O      153.205    -299.817    -178.340
  O      151.717    -301.116    -176.714
  H      158.498    -303.199    -173.077
  H      153.089    -300.636    -178.854
  H      155.106    -303.894    -166.462
  H      153.810    -303.648    -172.755
  H      157.014    -301.875    -171.649
  H      156.458    -304.108    -173.322
  H      157.214    -303.005    -166.088
  H      154.693    -303.015    -174.483
  H      158.122    -302.373    -167.395
  H      156.354    -300.426    -174.468
  H      153.346    -300.983    -174.355
  H      154.089    -299.390    -174.328
  P      156.289    -304.192    -176.440
  C      153.888    -304.192    -177.443
  O      154.782    -304.739    -176.502
  O      156.954    -305.034    -175.253
  O      157.061    -304.319    -177.709
  H      157.912    -305.126    -175.402
  H      152.934    -304.668    -177.348
  H      154.268    -304.350    -178.430
  H      153.782    -303.142    -177.266

 6  7  8  9  10  11  12  13  14  15  26  29  33  34 0
 6-311+G(2d,p)
 ****
 36  38  39  40  41 0
 6-311+G(2d,p)
 ****
 1  2  3  4  5  16  17  18  19  20  21  22  23  24  25 0
 3-21G
 ****
 27  28  30  31  32  35  37  42  43  44  45  46  47 0
 3-21G
 ****
 48  49 0
 3-21G
 ****


