%nproc=1
%NoSave
%Mem=1900MB
#P OB98/GEN NMR

erre ene a

0 1
  C       15.514      -5.282    -194.276
  O       14.975      -4.595    -193.161
  H       15.776      -6.303    -193.982
  H       14.753      -5.330    -195.059
  H       16.393      -4.765    -194.665
  P       16.000      -4.146    -192.009
  C       14.520      -4.771    -189.970
  O       15.104      -3.730    -190.740
  C       13.131      -4.354    -189.478
  O       12.209      -4.385    -190.610
  C       12.551      -5.263    -188.376
  O       11.850      -4.436    -187.435
  C       11.546      -6.122    -189.123
  O       10.510      -6.614    -188.281
  C       11.059      -5.148    -190.196
  N        7.102      -8.034    -191.573
  C        7.306      -7.235    -190.504
  N        8.374      -6.452    -190.240
  C        9.262      -6.498    -191.253
  C        9.190      -7.264    -192.407
  C        8.053      -8.076    -192.542
  N        7.866      -8.950    -193.594
  N       10.325      -7.083    -193.175
  C       11.078      -6.249    -192.486
  N       10.481      -5.869    -191.318
  O       16.545      -2.742    -192.564
  O       17.111      -5.102    -191.727
  H        9.888      -7.139    -188.820
  H       17.315      -2.896    -193.144
  H        6.515      -7.224    -189.762
  H       12.065      -5.916    -192.769
  H       10.301      -4.451    -189.819
  H       12.065      -6.979    -189.575
  H       13.309      -5.857    -187.853
  H       13.181      -3.313    -189.136
  H       15.155      -4.975    -189.102
  H        7.068      -9.570    -193.551
  H        8.609      -9.074    -194.267
  H       14.452      -5.679    -190.580
  P       12.395      -4.417    -185.926
  C       10.218      -4.687    -184.510
  O       11.246      -3.817    -184.981
  O       13.501      -3.259    -185.948
  O       12.970      -5.721    -185.472
  H       14.219      -3.469    -185.324
  H        9.536      -4.135    -183.897
  H       10.655      -5.477    -183.935
  H        9.692      -5.102    -185.344

 6  7  8  9  10  11  12  13  14  15  25  28  32  33  34  35 0
 6-311+G(2d,p)
 ****
 36  39  40 0
 6-311+G(2d,p)
 ****
 1  2  3  4  5  16  17  18  19  20  21  22  23  24 0
 3-21G
 ****
 26  27  29  30  31  37  38  41  42  43  44  45  46  47 0
 3-21G
 ****
 48 0
 3-21G
 ****


