%nproc=1
%NoSave
%Mem=1900MB
#P OB98/GEN NMR

erre ene a

0 1
  C      213.960     209.172    -140.159
  O      212.878     208.637    -139.388
  P      211.471     209.403    -139.521
  C      210.465     208.265    -141.641
  O      210.426     208.398    -140.224
  C      209.648     207.063    -142.095
  O      210.240     205.807    -141.700
  C      208.221     207.057    -141.524
  O      207.387     207.930    -142.275
  C      207.831     205.581    -141.705
  O      207.363     205.312    -143.036
  C      209.173     204.849    -141.453
  N      211.446     201.219    -138.747
  C      211.414     201.420    -140.113
  N      212.113     200.536    -140.861
  N      210.772     202.398    -140.690
  C      210.117     203.199    -139.827
  C      210.105     203.127    -138.443
  C      210.838     202.043    -137.819
  O      210.915     201.840    -136.606
  N      209.379     204.160    -137.899
  C      208.869     204.773    -138.934
  N      209.324     204.279    -140.137
  O      211.752     210.512    -140.634
  O      211.011     210.010    -138.232
  H      208.128     205.277    -143.640
  H      211.756     211.397    -140.227
  H      211.970     200.445    -138.354
  H      208.170     205.608    -138.894
  H      209.311     204.025    -142.175
  H      207.042     205.296    -141.018
  H      212.646     199.766    -140.499
  H      208.235     207.311    -140.480
  H      212.102     200.660    -141.875
  H      209.601     207.086    -143.193
  H      211.501     208.158    -141.973
  H      210.082     209.191    -142.076
  P      206.386     208.884    -141.468
  C      208.119     210.825    -141.416
  O      206.813     210.396    -141.772
  O      206.831     208.664    -139.944
  O      204.941     208.575    -141.666
  H      206.029     208.556    -139.362
  H      208.455     211.619    -142.101
  H      208.857     210.002    -141.464
  H      208.110     211.231    -140.391
  H      214.840     208.586    -139.993
  H      214.144     210.183    -139.862
  H      213.705     209.146    -141.198

 3  4  5  6  7  8  9  10  11  12  23  26  30  31 0
 6-311+G(2d,p)
 ****
 33  35  36  37  38 0
 6-311+G(2d,p)
 ****
 1  2  13  14  15  16  17  18  19  20  21  22  24  25 0
 3-21G
 ****
 27  28  29  32  34  39  40  41  42  43  44  45  46  47  48  49 0
 3-21G
 ****


