%nproc=1
%NoSave
%Mem=1900MB
#P OB98/GEN NMR

erre ene a

0 1
  C     -366.897    -100.525     142.818
  O     -365.924    -101.549     142.909
  H     -366.994    -100.006     143.775
  H     -366.582     -99.808     142.056
  H     -367.861    -100.953     142.527
  P     -366.153    -102.648     144.055
  C     -364.213    -102.570     145.773
  O     -365.485    -102.059     145.391
  C     -363.116    -101.938     144.923
  O     -363.225    -100.497     144.954
  C     -361.697    -102.238     145.388
  O     -361.270    -103.534     144.987
  C     -360.925    -101.141     144.666
  O     -360.697    -101.531     143.300
  C     -361.900     -99.961     144.720
  N     -358.259     -97.031     146.864
  C     -358.224     -97.888     145.820
  N     -359.223     -98.638     145.313
  C     -360.370     -98.433     145.983
  C     -360.557     -97.588     147.071
  C     -359.435     -96.864     147.521
  N     -359.478     -96.009     148.602
  N     -361.872     -97.625     147.498
  C     -362.464     -98.474     146.687
  N     -361.600     -98.994     145.762
  O     -365.162    -103.835     143.633
  O     -367.557    -103.140     144.202
  H     -360.237    -102.390     143.323
  H     -365.577    -104.688     143.860
  H     -357.268     -97.980     145.318
  H     -363.514     -98.732     146.728
  H     -361.939     -99.426     143.761
  H     -359.951    -100.938     145.113
  H     -361.594    -102.095     146.473
  H     -363.264    -102.267     143.890
  H     -364.196    -103.656     145.628
  H     -358.702     -95.382     148.747
  H     -360.360     -95.896     149.075
  H     -364.051    -102.347     146.834
  P     -359.914    -104.105     145.642
  C     -358.050    -104.330     143.860
  O     -358.720    -103.476     144.784
  O     -359.925    -105.645     145.209
  O     -359.815    -103.942     147.128
  H     -359.400    -106.170     145.853
  H     -357.280    -103.780     143.360
  H     -358.752    -104.697     143.140
  H     -357.615    -105.154     144.386

 6  7  8  9  10  11  12  13  14  15  25  28  32  33  34  35 0
 6-311+G(2d,p)
 ****
 36  39  40 0
 6-311+G(2d,p)
 ****
 1  2  3  4  5  16  17  18  19  20  21  22  23  24 0
 3-21G
 ****
 26  27  29  30  31  37  38  41  42  43  44  45  46  47  48 0
 3-21G
 ****


