%nproc=1
%NoSave
%Mem=1900MB
#P OB98/GEN NMR

erre ene a

0 1
  C       97.410    -160.966     -18.609
  O       98.494    -160.947     -19.543
  P       99.804    -161.778     -19.121
  C      101.376    -159.862     -18.355
  O      100.558    -160.958     -17.964
  C      102.017    -159.178     -17.140
  O      101.025    -158.418     -16.387
  C      102.672    -160.156     -16.154
  O      103.822    -159.495     -15.605
  C      101.619    -160.291     -15.070
  O      102.173    -160.803     -13.859
  C      101.114    -158.851     -15.009
  N       98.882    -157.828     -10.594
  C      100.221    -157.987     -10.897
  N      101.096    -157.801      -9.885
  N      100.663    -158.307     -12.089
  C       99.670    -158.422     -13.009
  C       98.313    -158.271     -12.835
  C       97.838    -157.952     -11.506
  O       96.666    -157.793     -11.184
  N       97.629    -158.440     -14.024
  C       98.580    -158.757     -14.887
  N       99.836    -158.708     -14.339
  O      100.762    -161.617     -20.394
  O       99.530    -163.214     -18.810
  H      101.462    -160.805     -13.184
  H      100.725    -162.421     -20.946
  H       98.599    -157.601      -9.653
  H       98.417    -159.007     -15.926
  H      101.814    -158.188     -14.484
  H      100.820    -160.973     -15.395
  H      100.832    -157.503      -8.957
  H      102.958    -161.118     -16.591
  H      102.092    -157.871     -10.090
  H      102.770    -158.465     -17.506
  H      100.781    -159.128     -18.904
  H      102.141    -160.219     -19.055
  P      105.267    -159.920     -16.156
  C      105.712    -161.675     -14.301
  O      105.527    -161.428     -15.680
  O      106.268    -159.065     -15.246
  O      105.490    -159.640     -17.610
  H      107.019    -158.750     -15.788
  H      105.414    -162.704     -14.086
  H      105.112    -160.998     -13.682
  H      106.768    -161.552     -14.047
  H       96.598    -160.384     -18.993
  H       97.735    -160.554     -17.677
  H       97.086    -161.975     -18.459

 3  4  5  6  7  8  9  10  11  12  23  26  30  31 0
 6-311+G(2d,p)
 ****
 33  35  36  37  38 0
 6-311+G(2d,p)
 ****
 1  2  13  14  15  16  17  18  19  20  21  22  24  25 0
 3-21G
 ****
 27  28  29  32  34  39  40  41  42  43  44  45  46  47  48  49 0
 3-21G
 ****


