%nproc=1
%NoSave
%Mem=1900MB
#P OB98/GEN NMR

erre ene a

0 1
  C     -301.004    -438.660    -196.822
  O     -300.262    -437.476    -197.036
  H     -300.398    -439.346    -196.227
  H     -301.247    -439.140    -197.774
  H     -301.921    -438.438    -196.270
  P     -300.887    -436.344    -197.984
  C     -302.379    -435.147    -196.242
  O     -302.332    -435.989    -197.387
  C     -303.556    -434.165    -196.336
  O     -304.774    -434.915    -196.608
  C     -303.797    -433.359    -195.046
  O     -304.353    -432.096    -195.432
  C     -304.837    -434.211    -194.349
  O     -305.457    -433.515    -193.301
  C     -305.704    -434.621    -195.543
  N     -306.571    -435.752    -195.248
  C     -307.945    -435.524    -195.375
  O     -308.364    -434.418    -195.708
  N     -308.810    -436.553    -195.093
  C     -308.347    -437.681    -194.650
  N     -309.262    -438.654    -194.375
  C     -306.906    -437.941    -194.448
  C     -306.083    -436.944    -194.766
  O     -300.869    -436.640    -199.447
  O     -300.025    -435.037    -197.646
  H     -305.938    -432.726    -193.635
  H     -299.398    -434.860    -198.372
  H     -306.573    -438.894    -194.064
  H     -305.009    -437.036    -194.650
  H     -306.329    -433.781    -195.879
  H     -304.372    -435.100    -193.904
  H     -302.883    -433.209    -194.463
  H     -303.392    -433.501    -197.193
  H     -310.239    -438.429    -194.523
  H     -301.435    -434.596    -196.198
  H     -309.020    -439.562    -194.009
  H     -302.478    -435.751    -195.333
  P     -304.062    -430.735    -194.630
  C     -302.804    -429.366    -196.419
  O     -302.715    -430.071    -195.186
  O     -304.106    -430.884    -193.143
  O     -305.207    -429.716    -195.117
  H     -305.415    -429.100    -194.392
  H     -301.842    -428.974    -196.676
  H     -303.502    -428.561    -196.320
  H     -303.135    -430.033    -197.188

 6  7  8  9  10  11  12  13  14  15  16  26  30  31  32  33  35 0
 6-311+G(2d,p)
 ****
 37  38 0
 6-311+G(2d,p)
 ****
 1  2  3  4  5  17  18  19  20  21  22  23  24  25 0
 3-21G
 ****
 27  28  29  34  36  39  40  41  42  43  44  45  46 0
 3-21G
 ****


