%nproc=1
%NoSave
%Mem=1900MB
#P OB98/GEN NMR

erre ene a

0 1
  C     -295.505     133.870     125.876
  O     -294.158     133.444     125.833
  H     -296.043     133.261     126.605
  H     -295.973     133.740     124.895
  H     -295.562     134.919     126.178
  P     -293.187     134.233     124.828
  C     -293.380     132.247     123.161
  O     -293.482     133.651     123.363
  C     -294.473     131.786     122.203
  O     -295.755     132.299     122.639
  C     -294.300     132.294     120.777
  O     -293.333     131.553     120.054
  C     -295.712     132.142     120.237
  O     -295.960     130.802     119.791
  C     -296.576     132.463     121.461
  N     -300.495     135.310     119.851
  C     -300.283     133.976     119.832
  N     -299.212     133.293     120.295
  C     -298.318     134.130     120.845
  C     -298.401     135.509     120.941
  C     -299.558     136.106     120.413
  N     -299.766     137.466     120.411
  N     -297.268     136.024     121.537
  C     -296.517     134.974     121.806
  N     -297.112     133.810     121.410
  O     -291.741     133.645     125.188
  O     -293.228     135.719     124.944
  H     -295.288     130.613     119.106
  H     -291.270     134.273     125.769
  H     -301.068     133.380     119.377
  H     -295.541     135.008     122.274
  H     -297.427     131.779     121.560
  H     -295.879     132.808     119.391
  H     -294.041     133.360     120.786
  H     -294.520     130.690     122.223
  H     -293.501     131.733     124.120
  H     -292.390     132.018     122.756
  H     -300.587     137.830     119.954
  H     -299.021     138.077     120.723
  P     -292.043     132.339     119.515
  C     -292.356     131.036     117.276
  O     -292.085     132.278     117.914
  O     -290.824     131.378     119.900
  O     -291.872     133.709     120.077
  H     -290.042     131.914     120.142
  H     -292.347     131.171     116.215
  H     -293.317     130.680     117.582
  H     -291.607     130.323     117.551

 6  7  8  9  10  11  12  13  14  15  25  28  32  33  34  35 0
 6-311+G(2d,p)
 ****
 36  37  40 0
 6-311+G(2d,p)
 ****
 1  2  3  4  5  16  17  18  19  20  21  22  23  24 0
 3-21G
 ****
 26  27  29  30  31  38  39 41  42  43  44  45  46  47  48 0
 3-21G
 ****


