%nproc=1
%NoSave
%Mem=1900MB
#P OB98/GEN NMR

erre ene a

0 1
  C       44.294      18.092     -86.427
  O       45.005      17.382     -87.420
  H       45.009      18.470     -85.692
  H       43.589      17.429     -85.920
  H       43.760      18.940     -86.863
  P       44.208      16.831     -88.697
  C       43.942      14.347     -88.069
  O       43.302      15.611     -88.188
  C       43.238      13.506     -87.008
  O       43.119      14.251     -85.776
  C       41.818      13.097     -87.386
  O       41.831      12.051     -88.336
  C       41.263      12.727     -86.020
  O       41.696      11.416     -85.625
  C       41.910      13.805     -85.119
  N       41.013      14.930     -84.846
  C       40.191      14.801     -83.732
  O       40.191      13.812     -83.003
  N       39.325      15.840     -83.508
  C       39.148      16.920     -84.323
  O       38.216      17.709     -84.204
  C       40.095      17.038     -85.441
  C       40.961      16.046     -85.658
  O       45.037      16.543     -89.904
  O       43.128      17.979     -88.989
  H       43.438      18.531     -89.732
  H       41.407      10.805     -86.330
  H       38.691      15.736     -82.729
  H       40.029      17.914     -86.074
  H       41.649      16.097     -86.495
  H       42.214      13.371     -84.158
  H       40.172      12.722     -86.001
  H       41.267      13.964     -87.768
  H       43.856      12.620     -86.808
  H       44.984      14.511     -87.772
  H       43.924      13.843     -89.040
  P       40.677      11.919     -89.436
  C       39.100      11.401     -87.483
  O       39.265      12.112     -88.702
  O       40.764      10.704     -90.301
  O       40.812      13.253     -90.312
  H       40.885      13.010     -91.256
  H       38.128      11.601     -87.082
  H       39.846      11.715     -86.783
  H       39.201      10.352     -87.666

 6  7  8  9  10  11  12  13  14  15  16  27  31  32  33  34  35 0
 6-311+G(2d,p)
 ****
 36  37 0
 6-311+G(2d,p)
 ****
 1  2  3  4  5  17  18  19  20  21  22  23  24  25 0
 3-21G
 ****
 26  28  29  30  38  39  40  41  42  43  44  45 0
 3-21G
 ****


