%nproc=1
%NoSave
%Mem=1900MB
#P OB98/GEN NMR

erre ene a

0 1
  C      290.492      13.717     126.859
  O      291.583      13.774     125.972
  H      290.565      14.562     127.551
  H      290.520      12.793     127.443
  H      289.544      13.792     126.317
  P      291.755      12.621     124.861
  C      293.318      11.467     126.545
  O      293.162      11.912     125.203
  C      294.505      10.514     126.672
  O      294.200       9.261     125.995
  C      295.809      11.063     126.069
  O      296.891      10.867     126.987
  C      296.022      10.198     124.831
  O      297.386      10.131     124.427
  C      295.397       8.874     125.299
  N      295.133       7.977     124.186
  C      296.242       7.323     123.637
  O      297.366       7.519     124.101
  N      296.065       6.510     122.548
  C      294.883       6.398     122.019
  N      294.777       5.597     120.921
  C      293.687       7.089     122.547
  C      293.880       7.851     123.623
  O      291.608      13.089     123.451
  O      290.688      11.497     125.271
  H      297.947      10.045     125.229
  H      290.479      10.952     124.472
  H      292.726       6.961     122.068
  H      293.064       8.399     124.082
  H      296.058       8.362     126.016
  H      295.441      10.610     124.002
  H      295.753      12.121     125.808
  H      294.634      10.264     127.736
  H      295.622       5.145     120.590
  H      292.389      10.970     126.860
  H      293.920       5.449     120.413
  H      293.488      12.344     127.180
  P      297.422      12.174     127.748
  C      298.936      12.758     125.721
  O      298.853      12.559     127.126
  O      297.761      11.635     129.218
  O      296.415      13.285     127.794
  H      297.123      11.990     129.860
  H      299.942      13.007     125.455
  H      298.284      13.556     125.435
  H      298.645      11.861     125.216

 6  7  8  9  10  11  12  13  14  15  16  26  30  31  32  33  35 0
 6-311+G(2d,p)
 ****
 37  38 0
 6-311+G(2d,p)
 ****
 1  2  3  4  5  17  18  19  20  21  22  23  24  25 0
 3-21G
 ****
 27  28  29  34  36  39  40  41  42  43  44  45  46 0
 3-21G
 ****


