%nproc=1
%NoSave
%Mem=1900MB
#P OB98/GEN NMR

erre ene a

0 1
  C        6.619    -116.699     123.432
  O        7.394    -117.768     122.921
  H        7.280    -115.849     123.624
  H        6.143    -116.995     124.371
  H        5.863    -116.400     122.703
  P        6.598    -119.112     122.548
  C        7.034    -120.481     124.701
  O        7.382    -120.266     123.340
  C        7.652    -121.779     125.210
  O        7.297    -122.004     126.587
  C        7.205    -123.027     124.459
  O        7.929    -123.175     123.249
  C        7.562    -124.111     125.466
  O        8.974    -124.394     125.395
  C        7.231    -123.439     126.813
  N        4.535    -126.826     129.572
  C        5.784    -126.875     129.060
  N        6.418    -125.957     128.300
  C        5.630    -124.894     128.080
  C        4.335    -124.701     128.537
  C        3.786    -125.725     129.328
  N        2.514    -125.665     129.858
  N        3.840    -123.488     128.108
  C        4.837    -122.934     127.449
  N        5.931    -123.761     127.372
  O        6.367    -119.344     121.096
  O        5.271    -118.934     123.428
  H        9.125    -125.249     125.840
  H        5.484    -118.539     124.292
  H        6.351    -127.773     129.292
  H        4.825    -121.937     127.024
  H        7.970    -123.685     127.581
  H        7.040    -125.048     125.271
  H        6.121    -123.032     124.299
  H        8.744    -121.670     125.171
  H        5.943    -120.518     124.815
  H        2.140    -126.508     130.263
  H        1.917    -124.904     129.571
  H        7.412    -119.631     125.276
  P        7.161    -123.286     121.845
  C        6.744    -125.754     122.434
  O        7.179    -124.837     121.434
  O        7.648    -122.359     120.785
  O        5.626    -123.024     122.204
  H        5.197    -122.499     121.501
  H        6.798    -126.752     122.051
  H        5.734    -125.531     122.707
  H        7.373    -125.668     123.295

 6  7  8  9  10  11  12  13  14  15  25  28  32  33  34  35 0
 6-311+G(2d,p)
 ****
 36  39  40 0
 6-311+G(2d,p)
 ****
 1  2  3  4  5  16  17  18  19  20  21  22  23  24 0
 3-21G
 ****
 26  27  29  30  31  37  38  41  42  43  44  45  46  47 0
 3-21G
 ****
 48 0
 3-21G
 ****


