%nproc=1
%NoSave
%Mem=1900MB
#P OB98/GEN NMR

erre ene a

0 1
  C       64.033      76.678    -282.587
  O       63.315      75.465    -282.483
  H       63.323      77.509    -282.576
  H       64.593      76.705    -283.527
  H       64.718      76.786    -281.742
  P       64.183      74.115    -282.507
  C       64.434      73.889    -279.936
  O       65.080      74.139    -281.174
  C       65.440      73.392    -278.901
  O       65.857      72.040    -279.203
  C       66.709      74.230    -278.805
  O       66.510      75.368    -277.985
  C       67.679      73.228    -278.196
  O       67.508      73.127    -276.767
  C       67.270      71.920    -278.888
  N       71.852      70.809    -280.694
  C       71.424      70.982    -279.394
  N       72.373      70.898    -278.436
  N       70.185      71.226    -279.063
  C       69.355      71.315    -280.128
  C       69.653      71.148    -281.462
  C       71.025      70.847    -281.811
  O       71.454      70.618    -282.938
  N       68.538      71.296    -282.244
  C       67.575      71.590    -281.390
  N       68.025      71.631    -280.095
  O       65.250      74.379    -283.671
  O       63.411      72.862    -282.743
  H       67.652      73.999    -276.366
  H       65.482      73.530    -284.090
  H       72.818      70.606    -280.885
  H       66.546      71.785    -281.657
  H       67.383      71.051    -278.231
  H       68.718      73.518    -278.364
  H       73.352      71.046    -278.644
  H       67.062      74.517    -279.802
  H       72.072      71.046    -277.481
  H       64.925      73.361    -277.932
  H       63.663      73.124    -280.083
  H       63.958      74.811    -279.584
  P       67.671      76.477    -277.952
  C       66.713      78.067    -279.777
  O       67.716      77.125    -279.420
  O       69.012      75.606    -277.896
  O       67.581      77.443    -276.822
  H       69.760      76.161    -277.603
  H       66.880      78.404    -280.779
  H       66.754      78.902    -279.109
  H       65.750      77.605    -279.712

 6  7  8  9  10  11  12  13  14  15  26  29  33  34 0
 6-311+G(2d,p)
 ****
 36  38  39  40  41 0
 6-311+G(2d,p)
 ****
 1  2  3  4  5  16  17  18  19  20  21  22  23  24  25 0
 3-21G
 ****
 27  28  30  31  32  35  37  42  43  44  45  46  47 0
 3-21G
 ****
 48  49 0
 3-21G
 ****


