%nproc=1
%NoSave
%Mem=1900MB
#P OB98/GEN NMR

erre ene a

0 1
  C     1136.090    -891.015    -721.086
  O     1135.386    -891.947    -720.288
  H     1135.984    -891.298    -722.135
  H     1137.151    -891.013    -720.832
  H     1135.673    -890.007    -720.939
  P     1135.504    -891.772    -718.698
  C     1135.919    -894.350    -718.830
  O     1135.421    -893.244    -718.058
  C     1135.602    -895.648    -718.094
  O     1136.220    -895.620    -716.767
  C     1134.122    -895.897    -717.846
  O     1133.455    -896.395    -718.989
  C     1134.185    -896.920    -716.728
  O     1134.344    -898.265    -717.248
  C     1135.400    -896.475    -715.920
  N     1135.017    -895.815    -714.673
  C     1135.213    -896.539    -713.521
  O     1135.666    -897.703    -713.514
  N     1134.819    -895.953    -712.348
  C     1134.239    -894.722    -712.264
  O     1133.863    -894.262    -711.172
  C     1134.038    -893.976    -713.507
  C     1134.444    -894.552    -714.652
  O     1134.109    -891.096    -718.298
  O     1136.661    -890.957    -718.239
  H     1134.229    -890.169    -718.084
  H     1134.448    -898.835    -716.457
  H     1134.937    -896.470    -711.496
  H     1133.571    -893.005    -713.468
  H     1134.299    -894.040    -715.593
  H     1136.035    -897.347    -715.665
  H     1133.259    -896.912    -716.138
  H     1133.652    -894.970    -717.467
  H     1136.044    -896.479    -718.655
  H     1137.000    -894.240    -718.942
  H     1135.453    -894.321    -719.821
  P     1132.539    -895.354    -719.824
  C     1130.267    -896.700    -720.037
  O     1131.482    -896.259    -720.638
  O     1133.568    -894.853    -720.927
  O     1131.930    -894.280    -718.963
  H     1134.263    -895.503    -721.112
  H     1129.712    -897.283    -720.742
  H     1129.687    -895.851    -719.741
  H     1130.490    -897.297    -719.177

 6  7  8  9  10  11  12  13  14  15  16  27  31  32  33  34  35 0
 6-311+G(2d,p)
 ****
 36  37 0
 6-311+G(2d,p)
 ****
 1  2  3  4  5  17  18  19  20  21  22  23  24  25 0
 3-21G
 ****
 26  28  29  30  38  39  40  41  42  43  44  45 0
 3-21G
 ****


