%nproc=1
%NoSave
%Mem=1900MB
#P OB98/GEN NMR

erre ene a

0 1
  C      -19.122     189.008     883.957
  O      -18.708     190.279     884.410
  H      -19.787     189.138     883.089
  H      -19.674     188.473     884.736
  H      -18.259     188.410     883.642
  P      -17.943     190.363     885.818
  C      -15.513     190.474     884.936
  O      -16.601     191.200     885.530
  C      -14.984     191.194     883.690
  O      -16.058     191.380     882.729
  C      -14.454     192.609     883.970
  O      -13.248     192.617     884.717
  C      -14.498     193.245     882.590
  O      -13.335     192.988     881.801
  C      -15.720     192.549     881.956
  N      -16.864     193.459     881.813
  C      -17.482     193.483     880.577
  O      -17.123     192.788     879.626
  N      -18.540     194.351     880.446
  C      -18.974     195.226     881.401
  O      -19.896     196.006     881.211
  C      -18.252     195.177     882.697
  C      -17.245     194.319     882.842
  O      -17.707     189.053     886.513
  O      -18.827     191.391     886.663
  H      -12.565     193.291     882.323
  H      -18.623     191.330     887.626
  H      -19.014     194.366     879.553
  H      -18.574     195.859     883.474
  H      -16.701     194.272     883.774
  H      -15.466     192.176     880.944
  H      -14.598     194.332     882.659
  H      -15.197     193.131     884.587
  H      -14.216     190.565     883.221
  H      -15.883     189.483     884.653
  H      -14.709     190.353     885.671
  P      -13.173     193.196     886.205
  C      -12.411     190.930     887.266
  O      -12.097     192.312     887.025
  O      -14.460     193.553     886.865
  O      -12.357     194.574     885.969
  H      -12.685     195.234     886.600
  H      -11.614     190.474     887.815
  H      -12.535     190.424     886.331
  H      -13.317     190.863     887.831

 6  7  8  9  10  11  12  13  14  15  16  26  31  32  33  34  35 0
 6-311+G(2d,p)
 ****
 36  37 0
 6-311+G(2d,p)
 ****
 1  2  3  4  5  17  18  19  20  21  22  23  24  25 0
 3-21G
 ****
 27  28  29  30  38  39  40  41  42  43  44  45 0
 3-21G
 ****


