%nproc=1
%NoSave
%Mem=1900MB
#P OB98/GEN NMR

erre ene a

0 1
  C      189.860    -358.436     343.921
  O      190.952    -358.096     343.085
  P      191.435    -356.566     342.990
  C      193.671    -357.252     341.908
  O      192.485    -356.460     341.786
  C      194.251    -357.560     340.533
  O      193.383    -358.461     339.805
  C      194.419    -356.340     339.633
  O      195.542    -355.572     340.030
  C      194.524    -356.987     338.268
  O      195.866    -357.459     338.032
  C      193.555    -358.186     338.400
  N      190.640    -359.140     334.324
  C      191.943    -359.400     334.575
  N      192.656    -359.072     335.679
  C      191.895    -358.406     336.551
  C      190.568    -358.043     336.418
  C      189.929    -358.453     335.228
  N      188.573    -358.260     334.991
  N      190.143    -357.313     337.516
  C      191.207    -357.243     338.303
  N      192.272    -357.935     337.795
  O      191.882    -355.959     344.281
  O      190.149    -355.806     342.411
  H      195.810    -358.183     337.367
  H      189.856    -355.131     343.057
  H      192.487    -359.947     333.794
  H      191.244    -356.719     339.245
  H      193.967    -359.091     337.950
  H      194.277    -356.302     337.449
  H      193.507    -355.721     339.671
  H      195.221    -358.072     340.681
  H      193.417    -358.177     342.430
  H      188.194    -358.736     334.193
  H      187.965    -358.028     335.782
  H      194.400    -356.708     342.526
  P      195.508    -353.978     339.880
  C      196.623    -353.118     342.035
  O      196.800    -353.410     340.651
  O      194.220    -353.319     340.238
  O      195.879    -353.722     338.341
  H      195.424    -352.928     338.027
  H      196.103    -352.153     342.132
  H      197.617    -353.040     342.502
  H      196.056    -353.893     342.537
  H      189.679    -359.489     343.861
  H      188.987    -357.905     343.601
  H      190.089    -358.170     344.932

 3  4  5  6  7  8  9  10  11  12  22  25  29  30  31  32 0
 6-311+G(2d,p)
 ****
 33  36  37 0
 6-311+G(2d,p)
 ****
 1  2  13  14  15  16  17  18  19  20  21  23  24  26 0
 3-21G
 ****
 27  28  34  35  38  39  40  41  42  43  44  45  46  47  48 0
 3-21G
 ****


