%nproc=1
%NoSave
%Mem=1900MB
#P OB98/GEN NMR

erre ene a

0 1
  C      517.122      64.133     -47.208
  O      517.570      63.660     -45.956
  H      516.944      63.279     -47.865
  H      517.893      64.765     -47.658
  H      516.193      64.699     -47.103
  P      517.600      64.710     -44.745
  C      520.144      65.182     -44.625
  O      518.864      65.674     -44.988
  C      521.218      66.229     -44.925
  O      522.484      65.762     -44.384
  C      521.422      66.500     -46.420
  O      521.667      67.899     -46.606
  C      522.676      65.714     -46.755
  O      523.367      66.241     -47.885
  C      523.453      65.814     -45.449
  N      527.588      63.778     -47.488
  C      526.912      64.939     -47.812
  N      527.406      65.665     -48.838
  N      525.841      65.354     -47.185
  C      525.483      64.546     -46.155
  C      526.062      63.370     -45.740
  C      527.231      62.910     -46.463
  O      527.859      61.881     -46.240
  N      525.384      62.827     -44.680
  C      524.393      63.671     -44.457
  N      524.415      64.732     -45.319
  O      518.045      63.814     -43.496
  O      516.311      65.415     -44.477
  H      522.738      66.250     -48.638
  H      517.325      63.778     -42.840
  H      528.397      63.501     -48.018
  H      523.636      63.559     -43.695
  H      524.010      66.755     -45.363
  H      522.409      64.672     -46.976
  H      528.251      65.431     -49.334
  H      520.569      66.197     -47.030
  H      526.947      66.541     -49.070
  H      520.965      67.152     -44.387
  H      520.352      64.273     -45.202
  H      520.150      64.936     -43.559
  P      520.565      68.725     -47.435
  C      521.229      67.965     -49.820
  O      520.251      67.923     -48.792
  O      521.376      70.013     -47.934
  O      519.369      69.112     -46.630
  H      521.088      70.799     -47.439
  H      520.890      67.392     -50.658
  H      522.148      67.555     -49.455
  H      521.386      68.980     -50.121

 6  7  8  9  10  11  12  13  14  15  26  29  33  34 0
 6-311+G(2d,p)
 ****
 36  38  39  40  41 0
 6-311+G(2d,p)
 ****
 1  2  3  4  5  16  17  18  19  20  21  22  23  24  25 0
 3-21G
 ****
 27  28  30  31  32  35  37  42  43  44  45  46  47 0
 3-21G
 ****
 48  49 0
 3-21G
 ****


