%nproc=1
%NoSave
%Mem=1900MB
#P OB98/GEN NMR

erre ene a

0 1
  C     -296.485     188.200     296.125
  O     -295.328     188.907     295.722
  H     -296.975     187.794     295.237
  H     -297.178     188.879     296.632
  H     -296.215     187.377     296.793
  P     -294.364     189.442     296.883
  C     -293.902     191.933     296.189
  O     -293.438     190.590     296.242
  C     -294.088     192.364     294.736
  O     -292.887     192.148     293.970
  C     -295.144     191.567     293.986
  O     -296.456     191.870     294.406
  C     -294.840     191.983     292.556
  O     -295.386     193.276     292.266
  C     -293.290     192.033     292.577
  N     -292.685     190.878     291.933
  C     -292.689     190.892     290.531
  O     -293.173     191.845     289.921
  N     -292.169     189.812     289.863
  C     -291.667     188.820     290.528
  N     -291.180     187.777     289.805
  C     -291.622     188.776     292.002
  C     -292.146     189.824     292.632
  O     -293.340     188.228     297.074
  O     -295.053     189.873     298.135
  H     -296.345     193.215     292.443
  H     -292.911     187.947     296.249
  H     -291.187     187.931     292.515
  H     -292.154     189.871     293.713
  H     -292.929     192.937     292.069
  H     -295.262     191.289     291.829
  H     -294.940     190.492     294.076
  H     -294.313     193.439     294.726
  H     -291.247     187.831     288.796
  H     -293.212     192.605     296.707
  H     -290.798     186.936     290.213
  H     -294.859     191.972     296.719
  P     -297.283     190.834     295.310
  C     -299.403     190.955     293.855
  O     -298.832     191.220     295.132
  O     -296.830     190.724     296.726
  O     -297.180     189.464     294.486
  H     -297.550     189.501     293.585
  H     -300.431     191.251     293.856
  H     -299.333     189.908     293.643
  H     -298.874     191.506     293.106

 6  7  8  9  10  11  12  13  14  15  16  26  30  31  32  33  35 0
 6-311+G(2d,p)
 ****
 37  38 0
 6-311+G(2d,p)
 ****
 1  2  3  4  5  17  18  19  20  21  22  23  24  25 0
 3-21G
 ****
 27  28  29  34  36  39  40  41  42  43  44  45  46 0
 3-21G
 ****


