%nproc=1
%NoSave
%Mem=1900MB
#P OB98/GEN NMR

erre ene a

0 1
  C      -84.506     197.655     -35.284
  O      -85.768     197.023     -35.207
  H      -84.362     198.264     -34.388
  H      -84.465     198.308     -36.159
  H      -83.700     196.914     -35.335
  P      -86.145     195.911     -36.297
  C      -86.008     195.845     -38.875
  O      -86.199     196.652     -37.721
  C      -85.972     196.722     -40.128
  O      -84.794     197.556     -40.115
  C      -85.915     195.941     -41.435
  O      -87.183     195.395     -41.755
  C      -85.420     197.018     -42.387
  O      -86.502     197.878     -42.793
  C      -84.416     197.783     -41.492
  N      -83.024     197.394     -41.725
  C      -82.299     198.187     -42.607
  O      -82.784     199.150     -43.201
  N      -80.983     197.825     -42.796
  C      -80.375     196.728     -42.265
  O      -79.213     196.413     -42.509
  C      -81.201     195.899     -41.371
  C      -82.469     196.269     -41.143
  O      -87.338     195.068     -35.986
  O      -84.812     195.023     -36.405
  H      -86.090     198.677     -43.180
  H      -84.920     194.203     -35.888
  H      -80.449     198.382     -43.440
  H      -80.751     195.016     -40.934
  H      -83.096     195.673     -40.488
  H      -84.501     198.866     -41.662
  H      -84.983     196.610     -43.298
  H      -85.152     195.151     -41.372
  H      -86.849     197.383     -40.103
  H      -86.845     195.135     -38.950
  H      -85.070     195.286     -38.765
  P      -87.299     194.073     -42.648
  C      -87.352     193.507     -45.148
  O      -87.030     194.495     -44.175
  O      -88.539     193.265     -42.434
  O      -85.991     193.226     -42.269
  H      -86.240     192.472     -41.706
  H      -87.137     193.886     -46.125
  H      -88.392     193.265     -45.080
  H      -86.769     192.628     -44.970

 6  7  8  9  10  11  12  13  14  15  16  26  31  32  33  34  35 0
 6-311+G(2d,p)
 ****
 36  37 0
 6-311+G(2d,p)
 ****
 1  2  3  4  5  17  18  19  20  21  22  23  24  25 0
 3-21G
 ****
 27  28  29  30  38  39  40  41  42  43  44  45 0
 3-21G
 ****


