%nproc=1
%NoSave
%Mem=1900MB
#P OB98/GEN NMR

erre ene a

0 1
  C      -25.328    -689.796     -94.566
  O      -24.236    -689.341     -93.785
  H      -25.599    -689.012     -95.276
  H      -26.187    -690.011     -93.923
  H      -25.042    -690.693     -95.121
  P      -23.698    -690.342     -92.648
  C      -24.749    -689.045     -90.665
  O      -23.551    -689.420     -91.340
  C      -24.462    -687.936     -89.653
  O      -23.766    -688.461     -88.506
  C      -23.597    -686.800     -90.202
  O      -24.400    -685.868     -90.908
  C      -23.070    -686.200     -88.906
  O      -24.061    -685.328     -88.328
  C      -22.867    -687.433     -88.010
  N      -18.537    -687.759     -85.276
  C      -19.633    -686.999     -85.114
  N      -20.728    -686.920     -85.908
  C      -20.611    -687.753     -86.967
  C      -19.538    -688.587     -87.254
  C      -18.466    -688.579     -86.351
  N      -17.329    -689.352     -86.523
  N      -19.771    -689.288     -88.427
  C      -20.987    -688.923     -88.792
  N      -21.522    -687.971     -87.966
  O      -22.505    -691.162     -93.016
  O      -25.025    -691.183     -92.334
  H      -23.613    -684.827     -87.621
  H      -25.804    -690.598     -92.322
  H      -19.655    -686.369     -84.234
  H      -21.525    -689.342     -89.646
  H      -23.157    -687.232     -86.968
  H      -22.171    -685.594     -89.059
  H      -22.760    -687.175     -90.791
  H      -25.427    -687.549     -89.294
  H      -25.178    -689.918     -90.149
  H      -16.542    -689.142     -85.940
  H      -17.234    -689.863     -87.395
  H      -25.465    -688.710     -91.420
  P      -24.045    -685.460     -92.420
  C      -23.847    -682.900     -92.306
  O      -24.691    -683.999     -92.618
  O      -24.417    -686.482     -93.443
  O      -22.479    -685.152     -92.388
  H      -22.119    -685.162     -93.303
  H      -24.376    -681.985     -92.473
  H      -22.978    -682.929     -92.930
  H      -23.551    -682.958     -91.280

 6  7  8  9  10  11  12  13  14  15  25  28  32  33  34  35 0
 6-311+G(2d,p)
 ****
 36  39  40 0
 6-311+G(2d,p)
 ****
 1  2  3  4  5  16  17  18  19  20  21  22  23  24 0
 3-21G
 ****
 26  27  29  30  31  37  38  41  42  43  44  45  46  47 0
 3-21G
 ****
 48 0
 3-21G
 ****


