%nproc=1
%NoSave
%Mem=1900MB
#P OB98/GEN NMR

erre ene a

0 1
  C       23.760     -91.809     -21.224
  O       23.208     -92.782     -22.090
  P       22.356     -92.324     -23.364
  C       21.805     -93.240     -25.701
  O       22.580     -93.413     -24.519
  C       22.411     -94.038     -26.853
  O       23.612     -93.398     -27.332
  C       22.824     -95.455     -26.476
  O       21.696     -96.303     -26.386
  C       23.787     -95.792     -27.608
  O       23.067     -96.212     -28.778
  C       24.469     -94.438     -27.856
  N       29.468     -95.074     -28.642
  C       28.391     -95.393     -29.391
  N       27.084     -95.226     -29.094
  C       26.945     -94.688     -27.871
  C       27.948     -94.343     -26.978
  C       29.269     -94.534     -27.416
  N       30.375     -94.156     -26.688
  N       27.402     -93.850     -25.808
  C       26.099     -93.905     -25.991
  N       25.779     -94.344     -27.245
  O       22.548     -90.906     -23.786
  O       20.839     -92.581     -22.919
  H       23.719     -96.582     -29.402
  H       20.350     -91.737     -22.936
  H       28.606     -95.832     -30.361
  H       25.354     -93.626     -25.257
  H       24.594     -94.235     -28.926
  H       24.480     -96.597     -27.346
  H       23.374     -95.443     -25.528
  H       21.685     -94.054     -27.677
  H       21.794     -92.175     -25.953
  H       31.268     -94.204     -27.154
  H       30.248     -93.490     -25.930
  H       20.778     -93.568     -25.512
  P       21.801     -97.686     -25.586
  C       20.104     -99.187     -24.385
  O       20.422     -97.870     -24.790
  O       23.038     -97.869     -24.771
  O       21.695     -98.794     -26.737
  H       22.221     -99.576     -26.484
  H       19.722     -99.752     -25.240
  H       19.331     -99.141     -23.615
  H       20.984     -99.693     -23.976
  H       24.293     -92.296     -20.434
  H       22.974     -91.213     -20.810
  H       24.431     -91.182     -21.773

 3  4  5  6  7  8  9  10  11  12  22  25  29  30  31  32 0
 6-311+G(2d,p)
 ****
 33  36  37 0
 6-311+G(2d,p)
 ****
 1  2  13  14  15  16  17  18  19  20  21  23  24  26 0
 3-21G
 ****
 27  28  34  35  38  39  40  41  42  43  44  45  46  47  48 0
 3-21G
 ****


