%nproc=1
%NoSave
%Mem=1900MB
#P OB98/GEN NMR

erre ene a

0 1
  C     -255.189     -28.494     223.840
  O     -254.058     -29.276     224.176
  H     -255.825     -29.071     223.164
  H     -254.875     -27.577     223.332
  H     -255.759     -28.249     224.741
  P     -253.003     -28.611     225.187
  C     -254.052     -29.693     227.292
  O     -253.804     -28.493     226.572
  C     -253.234     -29.719     228.585
  O     -253.544     -28.575     229.401
  C     -253.489     -30.937     229.464
  O     -252.757     -32.062     228.999
  C     -252.961     -30.436     230.799
  O     -251.524     -30.533     230.825
  C     -253.385     -28.956     230.795
  N     -255.535     -28.119     235.387
  C     -254.303     -28.552     235.036
  N     -253.816     -28.793     233.800
  C     -254.746     -28.540     232.862
  C     -256.043     -28.095     233.068
  C     -256.430     -27.871     234.402
  N     -257.687     -27.421     234.752
  N     -256.708     -27.951     231.867
  C     -255.810     -28.252     230.947
  N     -254.617     -28.650     231.504
  O     -252.334     -27.372     224.702
  O     -252.024     -29.848     225.465
  H     -251.178     -29.961     230.114
  H     -252.530     -30.678     225.529
  H     -253.615     -28.726     235.860
  H     -255.967     -28.184     229.879
  H     -252.611     -28.312     231.227
  H     -253.333     -31.024     231.643
  H     -254.562     -31.148     229.557
  H     -252.173     -29.648     228.311
  H     -253.804     -30.564     226.678
  H     -257.934     -27.451     235.730
  H     -258.387     -27.359     234.029
  H     -255.124     -29.725     227.524
  P     -253.075     -33.532     229.555
  C     -254.781     -33.762     227.642
  O     -254.550     -33.909     229.040
  O     -252.863     -33.708     231.021
  O     -252.134     -34.496     228.697
  H     -251.785     -35.214     229.257
  H     -255.789     -34.039     227.416
  H     -254.108     -34.393     227.101
  H     -254.620     -32.743     227.359

 6  7  8  9  10  11  12  13  14  15  25  28  32  33  34  35 0
 6-311+G(2d,p)
 ****
 36  39  40 0
 6-311+G(2d,p)
 ****
 1  2  3  4  5  16  17  18  19  20  21  22  23  24 0
 3-21G
 ****
 26  27  29  30  31  37  38  41  42  43  44  45  46  47 0
 3-21G
 ****
 48 0
 3-21G
 ****


