%nproc=1
%NoSave
%Mem=1900MB
#P OB98/GEN NMR

erre ene a

0 1
  C      -54.299     -82.342    -188.807
  O      -54.179     -83.686    -189.287
  P      -52.758     -84.412    -189.146
  C      -53.452     -86.454    -187.696
  O      -52.748     -85.224    -187.765
  C      -53.421     -87.005    -186.268
  O      -54.119     -86.137    -185.345
  C      -54.076     -88.373    -186.125
  O      -53.188     -89.421    -186.488
  C      -54.343     -88.416    -184.629
  O      -53.134     -88.768    -183.926
  C      -54.734     -86.964    -184.327
  N      -58.864     -86.620    -181.428
  C      -57.544     -86.832    -181.076
  N      -57.288     -86.964    -179.756
  N      -56.567     -86.908    -181.941
  C      -56.970     -86.739    -183.220
  C      -58.243     -86.527    -183.694
  C      -59.320     -86.460    -182.729
  O      -60.508     -86.288    -182.982
  N      -58.258     -86.413    -185.058
  C      -56.993     -86.538    -185.412
  N      -56.173     -86.754    -184.333
  O      -51.765     -83.190    -188.842
  O      -52.337     -85.177    -190.356
  H      -53.356     -88.776    -182.976
  H      -50.868     -83.407    -189.159
  H      -59.578     -86.575    -180.722
  H      -56.624     -86.477    -186.427
  H      -54.363     -86.624    -183.354
  H      -55.093     -89.165    -184.359
  H      -57.985     -86.865    -179.035
  H      -55.023     -88.420    -186.678
  H      -56.322     -87.085    -179.477
  H      -52.371     -87.075    -185.952
  H      -53.015     -87.184    -188.383
  H      -54.479     -86.299    -188.043
  P      -52.988     -89.725    -188.050
  C      -50.528     -88.923    -187.849
  O      -51.763     -88.811    -188.526
  O      -54.270     -89.034    -188.713
  O      -52.899     -91.171    -188.398
  H      -54.537     -89.525    -189.512
  H      -49.774     -88.357    -188.402
  H      -50.210     -89.967    -187.791
  H      -50.611     -88.505    -186.842
  H      -55.298     -81.994    -188.968
  H      -53.612     -81.713    -189.334
  H      -54.077     -82.316    -187.761

 3  4  5  6  7  8  9  10  11  12  23  26  30  31 0
 6-311+G(2d,p)
 ****
 33  35  36  37  38 0
 6-311+G(2d,p)
 ****
 1  2  13  14  15  16  17  18  19  20  21  22  24  25 0
 3-21G
 ****
 27  28  29  32  34  39  40  41  42  43  44  45  46  47  48  49 0
 3-21G
 ****


