%nproc=1
%NoSave
%Mem=1900MB
#P OB98/GEN NMR

erre ene a

0 1
  C     -899.152    -391.010    -149.713
  O     -897.952    -390.322    -149.306
  P     -896.492    -390.961    -149.426
  C     -896.352    -392.284    -147.214
  O     -896.442    -392.349    -148.631
  C     -896.192    -393.662    -146.570
  O     -894.882    -394.229    -146.906
  C     -896.302    -393.671    -145.032
  O     -897.022    -394.877    -144.692
  C     -894.852    -393.727    -144.590
  O     -894.672    -394.184    -143.251
  C     -894.292    -394.696    -145.670
  N     -892.862    -394.743    -145.747
  C     -892.202    -395.836    -145.125
  O     -892.822    -396.668    -144.473
  N     -890.842    -395.941    -145.228
  C     -890.172    -395.039    -145.903
  N     -888.822    -395.213    -145.991
  C     -890.812    -393.876    -146.570
  C     -892.132    -393.809    -146.462
  O     -895.392    -390.033    -149.029
  O     -896.342    -391.394    -150.964
  H     -895.412    -391.253    -151.240
  H     -895.142    -393.572    -142.663
  H     -890.212    -393.162    -147.122
  H     -892.672    -393.004    -146.924
  H     -894.712    -395.706    -145.476
  H     -894.422    -392.740    -144.680
  H     -896.852    -392.812    -144.630
  H     -896.922    -394.335    -147.022
  H     -888.412    -396.022    -145.535
  H     -897.272    -391.816    -146.825
  H     -888.192    -394.575    -146.497
  H     -895.502    -391.635    -146.946
  P     -898.442    -394.787    -143.981
  C     -897.552    -394.405    -141.552
  O     -898.292    -393.899    -142.648
  O     -898.622    -396.256    -143.367
  O     -899.612    -394.468    -144.875
  H     -899.582    -396.461    -143.268
  H     -896.892    -393.627    -141.184
  H     -896.932    -395.288    -141.844
  H     -898.232    -394.699    -140.762
  H     -900.000    -390.382    -149.536
  H     -899.253    -391.914    -149.149
  H     -899.092    -391.244    -150.755

 3  4  5  6  7  8  9  10  11  12  13  24  27  28  29  30  32 0
 6-311+G(2d,p)
 ****
 34  35 0
 6-311+G(2d,p)
 ****
 1  2  14  15  16  17  18  19  20  21  22  23  25  26 0
 3-21G
 ****
 31  33  36  37  38  39  40  41  42  43  44  45  46 0
 3-21G
 ****


