%nproc=1
%NoSave
%Mem=1900MB
#P OB98/GEN NMR

erre ene a

0 1
  C        3.124     -36.854     200.343
  O        2.444     -36.203     201.397
  H        2.571     -37.760     200.079
  H        4.129     -37.141     200.663
  H        3.182     -36.211     199.462
  P        2.970     -34.771     201.890
  C        2.920     -32.375     200.940
  O        2.806     -33.764     200.653
  C        3.623     -31.660     199.788
  O        4.960     -32.181     199.616
  C        2.931     -31.838     198.440
  O        1.775     -31.027     198.358
  C        4.061     -31.454     197.497
  O        4.200     -30.028     197.409
  C        5.285     -32.075     198.211
  N        5.665     -33.377     197.659
  C        5.936     -33.409     196.294
  O        5.864     -32.419     195.569
  N        6.251     -34.640     195.778
  C        6.230     -35.824     196.461
  O        6.303     -36.918     195.915
  C        6.014     -35.715     197.913
  C        5.729     -34.519     198.432
  O        4.316     -34.765     202.538
  O        1.829     -34.279     202.903
  H        2.127     -34.428     203.822
  H        3.367     -29.690     197.024
  H        6.402     -34.682     194.778
  H        6.053     -36.626     198.502
  H        5.535     -34.423     199.497
  H        6.152     -31.405     198.136
  H        3.899     -31.823     196.482
  H        2.680     -32.893     198.280
  H        3.706     -30.594     200.046
  H        3.510     -32.255     201.856
  H        1.920     -31.959     201.105
  P        0.588     -31.380     197.342
  C       -1.338     -33.067     197.310
  O       -0.018     -32.804     197.761
  O        0.935     -31.254     195.895
  O       -0.586     -30.358     197.738
  H       -0.872     -29.880     196.935
  H       -1.642     -34.037     197.643
  H       -1.363     -33.033     196.241
  H       -2.004     -32.329     197.706

 6  7  8  9  10  11  12  13  14  15  16  27  31  32  33  34  35 0
 6-311+G(2d,p)
 ****
 36  37 0
 6-311+G(2d,p)
 ****
 1  2  3  4  5  17  18  19  20  21  22  23  24  25 0
 3-21G
 ****
 26  28  29  30  38  39  40  41  42  43  44  45 0
 3-21G
 ****


