%nproc=1
%NoSave
%Mem=1900MB
#P OB98/GEN NMR

erre ene a

0 1
  C      317.248     -69.595      63.367
  O      316.463     -69.981      62.259
  H      317.935     -70.409      63.610
  H      316.604     -69.409      64.229
  H      317.836     -68.701      63.142
  P      315.581     -68.874      61.510
  C      316.342     -66.480      60.922
  O      316.616     -67.870      60.804
  C      317.250     -65.665      59.998
  O      318.581     -65.597      60.589
  C      317.404     -66.257      58.588
  O      317.607     -65.164      57.684
  C      318.678     -67.067      58.733
  O      319.237     -67.383      57.477
  C      319.505     -66.140      59.629
  N      320.624     -66.836      60.267
  C      321.703     -66.053      60.654
  O      321.763     -64.839      60.453
  N      322.744     -66.713      61.246
  C      322.831     -68.064      61.424
  O      323.805     -68.608      61.931
  C      321.678     -68.849      60.954
  C      320.640     -68.207      60.410
  O      314.535     -68.210      62.341
  O      314.946     -69.651      60.262
  H      319.337     -66.570      56.936
  H      314.079     -69.266      60.033
  H      323.532     -66.159      61.540
  H      321.720     -69.923      61.073
  H      319.774     -68.756      60.055
  H      319.916     -65.306      59.047
  H      318.478     -68.014      59.248
  H      316.546     -66.858      58.279
  H      316.872     -64.636      59.954
  H      316.510     -66.190      61.964
  H      315.291     -66.294      60.668
  P      316.524     -63.994      57.504
  C      315.632     -62.106      59.012
  O      316.765     -62.891      58.643
  O      315.113     -64.476      57.406
  O      316.960     -63.239      56.160
  H      316.177     -62.839      55.739
  H      315.913     -61.410      59.774
  H      314.859     -62.747      59.382
  H      315.274     -61.572      58.156

 6  7  8  9  10  11  12  13  14  15  16  26  31  32  33  34  35 0
 6-311+G(2d,p)
 ****
 36  37 0
 6-311+G(2d,p)
 ****
 1  2  3  4  5  17  18  19  20  21  22  23  24  25 0
 3-21G
 ****
 27  28  29  30  38  39  40  41  42  43  44  45 0
 3-21G
 ****


