%nproc=1
%NoSave
%Mem=1900MB
#P OB98/GEN NMR

erre ene a

0 1
  C     -351.348    -133.944     296.681
  O     -349.968    -134.323     296.682
  P     -349.521    -135.770     297.217
  C     -347.646    -134.807     298.667
  O     -347.965    -135.717     297.623
  C     -346.180    -134.344     298.649
  O     -345.330    -135.295     299.337
  C     -345.589    -134.138     297.249
  O     -344.658    -133.061     297.373
  C     -344.864    -135.453     297.009
  O     -343.892    -135.367     295.976
  C     -344.322    -135.748     298.415
  N     -344.001    -137.158     298.600
  C     -342.763    -137.602     298.131
  O     -342.021    -136.826     297.531
  N     -342.422    -138.919     298.307
  C     -343.281    -139.743     298.816
  N     -342.893    -141.039     298.941
  C     -344.635    -139.337     299.252
  C     -344.919    -138.043     299.127
  O     -349.893    -136.909     296.326
  O     -350.262    -135.899     298.636
  H     -343.178    -134.766     296.279
  H     -350.457    -136.841     298.811
  H     -345.327    -140.064     299.650
  H     -345.879    -137.646     299.422
  H     -343.410    -135.160     298.604
  H     -345.593    -136.227     296.715
  H     -346.341    -133.928     296.486
  H     -346.124    -133.407     299.213
  H     -341.969    -141.283     298.603
  H     -347.855    -135.287     299.628
  H     -343.519    -141.783     299.220
  H     -348.307    -133.935     298.596
  P     -345.115    -131.529     297.267
  C     -343.231    -130.964     295.623
  O     -343.808    -130.682     296.885
  O     -345.868    -131.012     298.445
  O     -346.001    -131.458     295.928
  H     -346.533    -130.645     295.948
  H     -342.495    -130.191     295.389
  H     -344.000    -130.972     294.841
  H     -342.729    -131.937     295.653
  H     -351.445    -132.952     296.291
  H     -351.727    -133.973     297.681
  H     -351.904    -134.624     296.070

 3  4  5  6  7  8  9  10  11  12  13  23  27  28  29  30  32 0
 6-311+G(2d,p)
 ****
 34  35 0
 6-311+G(2d,p)
 ****
 1  2  14  15  16  17  18  19  20  21  22  24  25  26 0
 3-21G
 ****
 31  33  36  37  38  39  40  41  42  43  44  45  46 0
 3-21G
 ****


