%nproc=1
%NoSave
%Mem=1900MB
#P OB98/GEN NMR

erre ene a

0 1
  C      891.982    -890.670     251.849
  O      893.172    -890.270     252.508
  P      893.871    -891.260     253.554
  C      895.955    -891.910     252.190
  O      894.718    -892.360     252.727
  C      897.118    -892.420     253.059
  O      897.156    -893.870     253.048
  C      898.480    -891.980     252.557
  O      898.743    -890.640     252.886
  C      899.390    -893.010     253.253
  O      899.649    -892.610     254.617
  C      898.523    -894.280     253.218
  N      900.767    -898.750     252.231
  C      900.673    -898.030     253.372
  N      900.094    -896.830     253.545
  C      899.574    -896.360     252.371
  C      899.630    -896.990     251.136
  C      900.222    -898.260     251.087
  N      900.278    -899.030     249.950
  N      899.035    -896.200     250.160
  C      898.633    -895.120     250.830
  N      898.899    -895.200     252.157
  O      892.960    -891.850     254.597
  O      895.014    -890.400     254.240
  H      900.382    -893.200     254.935
  H      894.849    -890.310     255.207
  H      901.109    -898.460     254.244
  H      898.155    -894.220     250.362
  H      898.562    -894.820     254.169
  H      900.350    -893.100     252.753
  H      898.560    -892.130     251.455
  H      896.953    -892.090     254.088
  H      895.955    -890.800     252.188
  H      900.607    -900.000     250.069
  H      899.642    -898.820     249.188
  H      896.062    -892.240     251.151
  P      899.857    -889.800     252.108
  C      898.291    -888.380     250.653
  O      899.239    -889.420     250.656
  O      901.211    -890.420     252.071
  O      899.882    -888.390     252.845
  H      900.797    -888.040     252.826
  H      897.347    -888.750     251.014
  H      898.188    -888.020     249.621
  H      898.644    -887.550     251.281
  H      891.659    -889.890     251.192
  H      891.220    -890.864     252.575
  H      892.169    -891.558     251.283

 3  4  5  6  7  8  9  10  11  12  22  25  29  30  31  32 0
 6-311+G(2d,p)
 ****
 33  36  37 0
 6-311+G(2d,p)
 ****
 1  2  13  14  15  16  17  18  19  20  21  23  24  26 0
 3-21G
 ****
 27  28  34  35  38  39  40  41  42  43  44  45  46  47  48 0
 3-21G
 ****


