%nproc=1
%NoSave
%Mem=1900MB
#P OB98/GEN NMR

erre ene a

0 1
  C     -505.742     -27.223    -433.808
  O     -505.963     -28.262    -432.846
  P     -506.183     -27.822    -431.315
  C     -504.025     -28.898    -430.321
  O     -505.459     -28.897    -430.362
  C     -503.481     -30.296    -430.009
  O     -504.061     -30.806    -428.771
  C     -503.791     -31.337    -431.100
  O     -502.736     -32.317    -431.106
  C     -505.053     -31.994    -430.582
  O     -505.278     -33.263    -431.200
  C     -504.752     -32.048    -429.080
  N     -507.863     -35.346    -426.883
  C     -506.751     -35.568    -427.670
  N     -506.385     -36.852    -427.872
  N     -506.035     -34.598    -428.213
  C     -506.503     -33.364    -427.887
  C     -507.588     -33.028    -427.133
  C     -508.389     -34.105    -426.560
  O     -509.381     -33.968    -425.865
  N     -507.760     -31.668    -427.055
  C     -506.751     -31.185    -427.781
  N     -505.947     -32.171    -428.281
  O     -507.736     -28.107    -431.077
  O     -505.845     -26.383    -431.043
  H     -504.513     -33.850    -430.967
  H     -508.223     -27.267    -431.021
  H     -508.374     -36.135    -426.497
  H     -506.572     -30.129    -427.976
  H     -504.090     -32.885    -428.814
  H     -505.924     -31.360    -430.789
  H     -506.850     -37.646    -427.437
  H     -503.904     -30.927    -432.101
  H     -505.551     -37.040    -428.408
  H     -502.396     -30.227    -429.862
  H     -503.675     -28.196    -429.558
  H     -503.643     -28.526    -431.283
  P     -501.936     -32.502    -432.489
  C     -502.107     -35.043    -433.024
  O     -501.338     -33.993    -432.468
  O     -500.634     -31.580    -432.303
  O     -502.710     -32.132    -433.713
  H     -500.283     -31.308    -433.173
  H     -501.686     -35.303    -433.997
  H     -503.160     -34.757    -433.159
  H     -502.044     -35.914    -432.372
  H     -505.612     -27.656    -434.778
  H     -504.864     -26.673    -433.543
  H     -506.585     -26.564    -433.822

 3  4  5  6  7  8  9  10  11  12  23  26  30  31 0
 6-311+G(2d,p)
 ****
 33  35  36  37  38 0
 6-311+G(2d,p)
 ****
 1  2  13  14  15  16  17  18  19  20  21  22  24  25 0
 3-21G
 ****
 27  28  29  32  34  39  40  41  42  43  44  45  46  47  48  49 0
 3-21G
 ****


