%nproc=1
%NoSave
%Mem=1900MB
#P OB98/GEN NMR

erre ene a

0 1
  C     -535.379      76.100    -171.597
  O     -536.096      77.228    -171.144
  H     -534.550      75.911    -170.912
  H     -534.966      76.299    -172.591
  H     -536.016      75.213    -171.633
  P     -537.519      77.564    -171.801
  C     -536.856      80.016    -172.268
  O     -537.744      79.140    -171.590
  C     -536.773      81.355    -171.534
  O     -538.099      81.963    -171.544
  C     -536.331      81.221    -170.062
  O     -535.560      82.376    -169.712
  C     -537.663      81.250    -169.342
  O     -537.522      81.590    -167.983
  C     -538.429      82.278    -170.176
  N     -539.864      82.216    -169.916
  C     -540.678      83.023    -170.705
  O     -540.249      83.774    -171.582
  N     -542.012      83.002    -170.410
  C     -542.584      82.349    -169.353
  O     -543.773      82.427    -169.084
  C     -541.667      81.555    -168.521
  C     -540.368      81.520    -168.838
  O     -538.661      76.707    -171.364
  O     -537.257      77.474    -173.379
  H     -536.913      80.972    -167.545
  H     -538.095      77.332    -173.856
  H     -542.617      83.571    -170.979
  H     -542.083      81.042    -167.661
  H     -539.662      80.960    -168.235
  H     -538.067      83.292    -169.972
  H     -538.142      80.266    -169.390
  H     -535.753      80.313    -169.867
  H     -536.110      82.028    -172.085
  H     -537.239      80.169    -173.285
  H     -535.864      79.555    -172.327
  P     -533.963      82.415    -169.889
  C     -533.617      83.196    -167.465
  O     -533.302      83.433    -168.834
  O     -533.506      82.617    -171.299
  O     -533.475      80.979    -169.365
  H     -532.827      80.610    -169.994
  H     -533.128      83.926    -166.855
  H     -533.284      82.218    -167.187
  H     -534.676      83.266    -167.325

 6  7  8  9  10  11  12  13  14  15  16  26  31  32  33  34  35 0
 6-311+G(2d,p)
 ****
 36  37 0
 6-311+G(2d,p)
 ****
 1  2  3  4  5  17  18  19  20  21  22  23  24  25 0
 3-21G
 ****
 27  28  29  30  38  39  40  41  42  43  44  45 0
 3-21G
 ****


