%nproc=1
%NoSave
%Mem=1900MB
#P OB98/GEN NMR

erre ene a

0 1
  C       39.422     196.292     -75.649
  O       39.179     195.308     -76.663
  P       39.585     193.767     -76.472
  C       37.470     192.889     -75.289
  O       38.853     193.202     -75.158
  C       37.256     191.435     -75.721
  O       37.439     190.538     -74.606
  C       35.866     191.136     -76.275
  O       35.757     191.583     -77.614
  C       35.789     189.625     -76.092
  O       36.478     188.953     -77.158
  C       36.534     189.428     -74.765
  N       34.002     186.204     -71.706
  C       34.840     185.995     -72.746
  N       35.472     186.907     -73.517
  C       35.187     188.153     -73.102
  C       34.350     188.523     -72.059
  C       33.737     187.482     -71.343
  N       32.873     187.699     -70.293
  N       34.283     189.896     -71.950
  C       35.081     190.346     -72.897
  N       35.650     189.333     -73.619
  O       41.055     193.510     -76.512
  O       38.843     193.000     -77.667
  H       36.484     188.001     -76.948
  H       39.345     192.198     -77.904
  H       35.027     184.954     -72.994
  H       35.279     191.391     -73.096
  H       37.151     188.523     -74.779
  H       34.760     189.252     -76.080
  H       35.103     191.618     -75.651
  H       38.024     191.191     -76.464
  H       37.033     193.561     -76.038
  H       32.448     186.898     -69.850
  H       32.633     188.647     -70.046
  H       36.979     193.068     -74.325
  P       34.633     192.652     -78.016
  C       36.404     194.423     -78.573
  O       35.268     194.107     -77.790
  O       33.292     192.441     -77.400
  O       34.563     192.544     -79.611
  H       33.662     192.768     -79.911
  H       37.292     193.968     -78.127
  H       36.530     195.509     -78.587
  H       36.286     194.066     -79.600
  H       39.074     197.246     -75.987
  H       40.472     196.346     -75.449
  H       38.902     196.019     -74.755

 3  4  5  6  7  8  9  10  11  12  22  25  29  30  31  32 0
 6-311+G(2d,p)
 ****
 33  36  37 0
 6-311+G(2d,p)
 ****
 1  2  13  14  15  16  17  18  19  20  21  23  24  26 0
 3-21G
 ****
 27  28  34  35  38  39  40  41  42  43  44  45  46  47  48 0
 3-21G
 ****


