%nproc=1
%NoSave
%Mem=1900MB
#P OB98/GEN NMR

erre ene a

0 1
  C     -447.584    -263.935     156.344
  O     -448.142    -264.788     155.349
  P     -447.260    -265.135     154.056
  C     -446.041    -267.406     154.652
  O     -445.995    -266.008     154.480
  C     -444.910    -268.057     153.838
  O     -443.628    -267.561     154.281
  C     -444.874    -269.577     153.963
  O     -445.724    -270.213     153.030
  C     -443.404    -269.872     153.739
  O     -443.092    -269.811     152.331
  C     -442.736    -268.695     154.490
  N     -442.497    -268.843     155.940
  C     -441.394    -269.565     156.392
  O     -440.577    -270.112     155.654
  N     -441.234    -269.638     157.750
  C     -441.945    -268.938     158.686
  O     -441.721    -268.998     159.885
  C     -443.003    -268.077     158.151
  C     -443.235    -268.074     156.833
  O     -446.633    -263.727     153.638
  O     -448.032    -265.760     152.932
  H     -443.029    -268.867     152.092
  H     -446.968    -263.449     152.765
  H     -440.483    -270.215     158.095
  H     -443.560    -267.471     158.848
  H     -444.017    -267.438     156.428
  H     -441.771    -268.444     154.034
  H     -443.145    -270.880     154.061
  H     -445.122    -269.877     154.988
  H     -445.038    -267.776     152.780
  H     -447.007    -267.807     154.332
  H     -445.936    -267.651     155.714
  P     -446.629    -271.453     153.491
  C     -448.789    -270.073     153.527
  O     -447.865    -270.818     154.292
  O     -445.911    -272.566     154.182
  O     -447.317    -271.942     152.126
  H     -446.813    -272.691     151.730
  H     -449.654    -269.829     154.151
  H     -449.128    -270.653     152.661
  H     -448.327    -269.140     153.190
  H     -448.291    -263.801     157.136
  H     -447.351    -262.985     155.910
  H     -446.691    -264.378     156.733

 3  4  5  6  7  8  9  10  11  12  13  23  28  29  30  31  32 0
 6-311+G(2d,p)
 ****
 33  34 0
 6-311+G(2d,p)
 ****
 1  2  14  15  16  17  18  19  20  21  22  24  25  26  27 0
 3-21G
 ****
 35  36  37  38  39  40  41  42  43  44  45 0
 3-21G
 ****


