%nproc=1
%NoSave
%Mem=1900MB
#P OB98/GEN NMR

erre ene a

0 1
  C      131.922      91.232    -142.982
  O      132.341      90.555    -144.148
  H      130.841      91.133    -142.855
  H      132.418      90.785    -142.116
  H      132.195      92.289    -143.038
  P      131.732      91.066    -145.542
  C      129.863      89.283    -145.256
  O      130.183      90.641    -145.523
  C      128.349      89.118    -145.178
  O      127.790      90.093    -144.269
  C      127.627      89.326    -146.504
  O      127.671      88.173    -147.326
  C      126.215      89.597    -146.011
  O      125.588      88.359    -145.628
  C      126.477      90.467    -144.774
  N      123.604      94.700    -144.807
  C      123.318      93.419    -144.495
  N      124.138      92.348    -144.516
  C      125.371      92.703    -144.909
  C      125.809      93.967    -145.267
  C      124.863      95.005    -145.197
  N      125.148      96.310    -145.529
  N      127.137      93.934    -145.649
  C      127.498      92.677    -145.492
  N      126.464      91.892    -145.056
  O      132.368      90.067    -146.620
  O      131.981      92.499    -145.872
  H      124.684      88.582    -145.339
  H      132.333      90.469    -147.508
  H      122.292      93.228    -144.189
  H      128.490      92.288    -145.678
  H      125.753      90.286    -143.972
  H      125.579      90.059    -146.769
  H      127.999      90.213    -147.032
  H      128.137      88.122    -144.769
  H      130.309      88.988    -144.301
  H      124.360      96.933    -145.624
  H      126.037      96.512    -145.963
  H      130.274      88.653    -146.052
  P      127.586      88.395    -148.913
  C      124.988      88.361    -148.764
  O      126.154      89.063    -149.185
  O      127.421      86.910    -149.481
  O      128.758      89.106    -149.507
  H      127.761      86.847    -150.393
  H      124.118      88.932    -149.014
  H      125.024      88.212    -147.705
  H      124.946      87.412    -149.256

 6  7  8  9  10  11  12  13  14  15  25  28  32  33  34  35 0
 6-311+G(2d,p)
 ****
 36  39  40 0
 6-311+G(2d,p)
 ****
 1  2  3  4  5  16  17  18  19  20  21  22  23  24 0
 3-21G
 ****
 26  27  29  30  31  37  38  41  42  43  44  45  46  47 0
 3-21G
 ****
 48 0
 3-21G
 ****


