%nproc=1
%NoSave
%Mem=1900MB
#P OB98/GEN NMR

erre ene a

0 1
  C      299.801      70.885     579.413
  O      300.823      70.489     578.514
  P      300.420      69.506     577.309
  C      300.095      71.328     575.440
  O      299.513      70.381     576.320
  C      299.822      70.936     573.986
  O      298.406      70.755     573.783
  C      300.249      71.976     572.957
  O      301.652      71.964     572.746
  C      299.419      71.558     571.751
  O      300.042      70.450     571.076
  C      298.104      71.101     572.415
  N      297.044      72.105     572.343
  C      296.162      71.994     571.273
  O      296.244      71.110     570.423
  N      295.187      72.952     571.202
  C      295.048      74.022     572.038
  O      294.182      74.875     571.905
  C      296.029      74.105     573.131
  C      296.967      73.160     573.230
  O      299.391      68.536     578.055
  O      301.593      68.831     576.688
  H      298.958      68.977     578.807
  H      299.519      70.290     570.266
  H      294.520      72.879     570.448
  H      295.959      74.945     573.811
  H      297.704      73.210     574.024
  H      297.739      70.182     571.940
  H      299.300      72.363     571.017
  H      299.937      72.976     573.287
  H      300.319      69.978     573.790
  H      301.174      71.360     575.614
  H      299.677      72.318     575.654
  P      302.328      73.362     572.324
  C      302.373      74.037     574.848
  O      302.031      74.381     573.524
  O      301.350      73.838     571.148
  O      303.763      73.239     571.926
  H      300.414      73.687     571.352
  H      302.432      74.953     575.443
  H      303.337      73.526     574.891
  H      301.597      73.392     575.271
  H      300.213      71.534     580.158
  H      299.386      70.019     579.885
  H      299.033      71.401     578.875

 3  4  5  6  7  8  9  10  11  12  13  24  28  29  30  31  32 0
 6-311+G(2d,p)
 ****
 33  34 0
 6-311+G(2d,p)
 ****
 1  2  14  15  16  17  18  19  20  21  22  23  25  26  27 0
 3-21G
 ****
 35  36  37  38  39  40  41  42  43  44  45 0
 3-21G
 ****


