%nproc=1
%NoSave
%Mem=1900MB
#P OB98/GEN NMR

erre ene a

0 1
  C     -159.192     247.039      95.122
  O     -159.370     248.168      95.956
  H     -160.174     246.612      94.896
  H     -158.587     246.278      95.621
  H     -158.718     247.337      94.184
  P     -158.072     248.805      96.653
  C     -157.507     249.865      94.372
  O     -157.031     249.071      95.455
  C     -156.347     250.482      93.590
  O     -156.836     251.192      92.431
  C     -155.547     251.512      94.370
  O     -154.819     250.993      95.458
  C     -154.809     252.244      93.258
  O     -153.630     251.555      92.844
  C     -155.864     252.219      92.122
  N     -156.497     253.519      91.927
  C     -155.671     254.533      91.452
  O     -154.469     254.381      91.225
  N     -156.268     255.749      91.277
  C     -157.562     256.058      91.569
  O     -158.033     257.180      91.405
  C     -158.378     254.956      92.103
  C     -157.814     253.754      92.253
  O     -157.496     248.015      97.792
  O     -158.540     250.278      97.064
  H     -153.919     250.698      92.472
  H     -157.917     250.683      97.713
  H     -155.689     256.496      90.916
  H     -159.406     255.166      92.355
  H     -158.398     252.921      92.646
  H     -155.393     251.924      91.175
  H     -154.509     253.249      93.557
  H     -156.250     252.238      94.801
  H     -155.706     249.667      93.231
  H     -158.126     250.665      94.792
  H     -158.125     249.248      93.710
  P     -153.789     251.849      96.326
  C     -155.658     253.026      97.724
  O     -154.541     253.164      96.856
  O     -152.412     252.003      95.774
  O     -153.683     250.959      97.671
  H     -152.766     251.049      98.004
  H     -156.035     253.995      97.977
  H     -155.356     252.516      98.615
  H     -156.424     252.463      97.233

 6  7  8  9  10  11  12  13  14  15  16  26  31  32  33  34  35 0
 6-311+G(2d,p)
 ****
 36  37 0
 6-311+G(2d,p)
 ****
 1  2  3  4  5  17  18  19  20  21  22  23  24  25 0
 3-21G
 ****
 27  28  29  30  38  39  40  41  42  43  44  45 0
 3-21G
 ****


