%nproc=1
%NoSave
%Mem=1900MB
#P OB98/GEN NMR

erre ene a

0 1
  C     -349.543     773.539    -182.248
  O     -349.874     774.688    -181.484
  P     -349.598     776.176    -182.029
  C     -351.955     776.903    -181.271
  O     -350.561     777.129    -181.174
  C     -352.720     777.925    -180.415
  O     -352.543     777.582    -179.016
  C     -352.255     779.375    -180.597
  O     -353.412     780.215    -180.474
  C     -351.316     779.578    -179.429
  O     -351.142     780.948    -179.096
  C     -352.016     778.748    -178.346
  N     -351.108     778.357    -177.261
  C     -351.178     779.087    -176.080
  O     -351.962     780.032    -175.954
  N     -350.367     778.724    -175.035
  C     -349.491     777.772    -175.200
  N     -348.739     777.411    -174.122
  C     -349.313     777.052    -176.476
  C     -350.159     777.380    -177.442
  O     -349.708     776.327    -183.506
  O     -348.158     776.549    -181.442
  H     -352.026     781.351    -178.976
  H     -347.413     776.223    -182.002
  H     -348.553     776.289    -176.568
  H     -350.126     776.880    -178.402
  H     -352.871     779.296    -177.935
  H     -350.327     779.166    -179.671
  H     -351.791     779.545    -181.571
  H     -353.784     777.834    -180.642
  H     -349.007     777.809    -173.225
  H     -352.171     775.900    -180.901
  H     -348.298     776.500    -174.075
  H     -352.272     776.957    -182.320
  P     -353.421     781.625    -181.241
  C     -355.242     781.144    -183.032
  O     -354.885     781.845    -181.856
  O     -352.556     781.277    -182.556
  O     -352.800     782.783    -180.528
  H     -352.152     782.093    -182.894
  H     -356.270     781.405    -183.299
  H     -355.195     780.061    -182.857
  H     -354.581     781.419    -183.854
  H     -349.809     772.658    -181.701
  H     -348.491     773.532    -182.445
  H     -350.079     773.560    -183.174

 3  4  5  6  7  8  9  10  11  12  13  23  27  28  29  30  32 0
 6-311+G(2d,p)
 ****
 34  35 0
 6-311+G(2d,p)
 ****
 1  2  14  15  16  17  18  19  20  21  22  24  25  26 0
 3-21G
 ****
 31  33  36  37  38  39  40  41  42  43  44  45  46 0
 3-21G
 ****


