%nproc=1
%NoSave
%Mem=1900MB
#P OB98/GEN NMR

erre ene a

0 1
  C     -407.389      99.027    -114.814
  O     -406.260      99.681    -115.356
  H     -408.235      99.167    -115.495
  H     -407.647      99.457    -113.844
  H     -407.202      97.955    -114.706
  P     -404.844      99.520    -114.620
  C     -403.826      97.862    -116.312
  O     -404.296      98.057    -114.986
  C     -402.308      97.686    -116.304
  O     -401.928      96.649    -115.372
  C     -401.731      97.264    -117.651
  O     -401.692      98.358    -118.548
  C     -400.373      96.729    -117.217
  O     -399.447      97.801    -116.985
  C     -400.731      96.022    -115.886
  N     -400.916      94.577    -116.042
  C     -399.786      93.850    -116.404
  O     -398.681      94.366    -116.594
  N     -399.975      92.506    -116.588
  C     -401.176      91.855    -116.535
  O     -401.337      90.702    -116.921
  C     -402.318      92.658    -116.076
  C     -402.144      93.970    -115.871
  O     -404.826      99.860    -113.167
  O     -403.873     100.481    -115.458
  H     -403.749     101.320    -114.971
  H     -399.939      98.494    -116.500
  H     -399.172      91.977    -116.894
  H     -403.277      92.166    -115.961
  H     -402.978      94.588    -115.561
  H     -399.940      96.188    -115.142
  H     -399.926      96.075    -117.967
  H     -402.320      96.436    -118.071
  H     -401.856      98.628    -115.967
  H     -404.088      98.746    -116.905
  H     -404.319      96.984    -116.741
  P     -401.729      98.132    -120.133
  C     -404.249      98.492    -120.436
  O     -403.177      97.564    -120.516
  O     -400.586      97.349    -120.685
  O     -401.751      99.618    -120.737
  H     -401.029      99.706    -121.394
  H     -405.162      98.007    -120.712
  H     -404.064      99.309    -121.102
  H     -404.329      98.859    -119.434

 6  7  8  9  10  11  12  13  14  15  16  27  31  32  33  34  35 0
 6-311+G(2d,p)
 ****
 36  37 0
 6-311+G(2d,p)
 ****
 1  2  3  4  5  17  18  19  20  21  22  23  24  25 0
 3-21G
 ****
 26  28  29  30  38  39  40  41  42  43  44  45 0
 3-21G
 ****


