%nproc=1
%NoSave
%Mem=1900MB
#P OB98/GEN NMR

erre ene a

0 1
  C     -255.499     386.855     385.785
  O     -255.803     388.219     385.605
  H     -256.423     386.279     385.719
  H     -255.060     386.706     386.777
  H     -254.802     386.496     385.022
  P     -254.626     389.229     385.202
  C     -253.683     389.814     387.535
  O     -254.426     390.269     386.406
  C     -253.277     390.968     388.448
  O     -252.454     391.903     387.717
  C     -254.482     391.755     388.965
  O     -255.064     391.236     390.150
  C     -253.873     393.136     389.218
  O     -253.323     393.228     390.544
  C     -252.763     393.233     388.170
  N     -252.806     397.915     386.120
  C     -252.488     397.538     387.406
  N     -252.185     398.539     388.264
  N     -252.490     396.297     387.820
  C     -252.915     395.416     386.876
  C     -253.276     395.677     385.575
  C     -253.197     397.046     385.112
  O     -253.455     397.429     383.975
  N     -253.696     394.539     384.932
  C     -253.669     393.612     385.871
  N     -253.127     394.079     387.044
  O     -255.294     390.143     384.063
  O     -253.374     388.584     384.697
  H     -252.647     392.531     390.641
  H     -254.610     390.423     383.429
  H     -252.760     398.887     385.859
  H     -253.979     392.578     385.741
  H     -251.840     393.650     388.594
  H     -254.641     393.920     389.135
  H     -252.250     399.515     388.026
  H     -255.250     391.860     388.189
  H     -252.130     398.328     389.262
  H     -252.663     390.581     389.274
  H     -252.791     389.321     387.135
  H     -254.250     389.064     388.090
  P     -256.292     390.207     390.083
  C     -258.304     391.657     389.199
  O     -257.639     391.033     390.285
  O     -256.146     389.396     391.454
  O     -256.312     389.310     388.889
  H     -255.709     388.537     391.299
  H     -259.182     392.154     389.556
  H     -258.582     390.917     388.478
  H     -257.650     392.371     388.743

 6  7  8  9  10  11  12  13  14  15  26  29  33  34 0
 6-311+G(2d,p)
 ****
 36  38  39  40  41 0
 6-311+G(2d,p)
 ****
 1  2  3  4  5  16  17  18  19  20  21  22  23  24  25 0
 3-21G
 ****
 27  28  30  31  32  35  37  42  43  44  45  46  47 0
 3-21G
 ****
 48  49 0
 3-21G
 ****


