%nproc=1
%NoSave
%Mem=1900MB
#P OB98/GEN NMR

erre ene a

0 1
  C     -134.003     431.629     283.526
  O     -134.798     431.197     284.612
  H     -133.240     432.317     283.902
  H     -134.624     432.159     282.800
  H     -133.508     430.782     283.047
  P     -135.849     430.023     284.310
  C     -135.961     429.074     286.723
  O     -136.640     429.757     285.681
  C     -136.922     428.765     287.866
  O     -136.965     429.870     288.799
  C     -138.364     428.526     287.427
  O     -138.562     427.191     286.979
  C     -139.099     428.781     288.732
  O     -138.958     427.641     289.602
  C     -138.328     429.980     289.297
  N     -138.096     434.990     290.039
  C     -137.380     433.970     290.638
  N     -136.482     434.335     291.576
  N     -137.534     432.703     290.349
  C     -138.478     432.485     289.400
  C     -139.248     433.411     288.732
  C     -139.062     434.805     289.056
  O     -139.652     435.750     288.541
  N     -140.085     432.809     287.833
  C     -139.840     431.521     287.967
  N     -138.875     431.270     288.912
  O     -134.922     428.723     284.163
  O     -136.701     430.221     283.102
  H     -139.329     426.876     289.127
  H     -135.304     428.141     283.478
  H     -137.946     435.946     290.307
  H     -140.326     430.734     287.407
  H     -138.280     429.967     290.392
  H     -140.168     428.943     288.587
  H     -136.350     435.287     291.880
  H     -138.682     429.258     286.677
  H     -135.923     433.609     292.004
  H     -136.533     427.894     288.408
  H     -135.146     429.703     287.095
  H     -135.539     428.145     286.325
  P     -139.830     426.905     286.033
  C     -138.203     425.312     284.785
  O     -139.515     425.514     285.300
  O     -139.658     427.987     284.866
  O     -141.155     427.010     286.706
  H     -140.521     428.163     284.443
  H     -138.144     424.346     284.328
  H     -137.493     425.372     285.583
  H     -137.986     426.065     284.057

 6  7  8  9  10  11  12  13  14  15  26  29  33  34 0
 6-311+G(2d,p)
 ****
 36  38  39  40  41 0
 6-311+G(2d,p)
 ****
 1  2  3  4  5  16  17  18  19  20  21  22  23  24  25 0
 3-21G
 ****
 27  28  30  31  32  35  37  42  43  44  45  46  47 0
 3-21G
 ****
 48  49 0
 3-21G
 ****


