%nproc=1
%NoSave
%Mem=1900MB
#P OB98/GEN NMR

erre ene a

0 1
  C       66.032    -397.352    -560.969
  O       65.114    -398.404    -561.205
  H       65.537    -396.402    -561.176
  H       66.901    -397.438    -561.626
  H       66.358    -397.360    -559.923
  P       65.654    -399.913    -561.118
  C       65.633    -400.457    -563.649
  O       65.019    -400.667    -562.384
  C       65.126    -401.488    -564.655
  O       65.647    -402.796    -564.338
  C       63.610    -401.634    -564.653
  O       62.998    -400.546    -565.314
  C       63.452    -402.984    -565.317
  O       63.569    -402.880    -566.739
  C       64.647    -403.765    -564.719
  N       64.261    -404.595    -563.585
  C       64.240    -405.980    -563.817
  O       64.535    -406.429    -564.918
  N       63.856    -406.807    -562.784
  C       63.551    -406.305    -561.628
  N       63.182    -407.180    -560.654
  C       63.576    -404.857    -561.341
  C       63.931    -404.071    -562.356
  O       65.465    -400.624    -559.815
  O       67.203    -399.781    -561.512
  H       63.481    -403.795    -567.083
  H       67.743    -399.625    -560.716
  H       63.314    -404.484    -560.359
  H       63.981    -402.993    -562.228
  H       65.102    -404.409    -565.479
  H       62.480    -403.427    -565.097
  H       63.240    -401.719    -563.623
  H       65.494    -401.208    -565.648
  H       63.167    -408.161    -560.898
  H       66.713    -400.565    -563.507
  H       63.003    -406.915    -559.700
  H       65.434    -399.447    -564.015
  P       61.851    -399.686    -564.596
  C       60.714    -399.525    -566.913
  O       61.176    -398.813    -565.767
  O       62.281    -398.924    -563.388
  O       60.721    -400.786    -564.282
  H       60.985    -401.367    -563.527
  H       60.289    -398.837    -567.613
  H       59.971    -400.235    -566.616
  H       61.535    -400.037    -567.370

 6  7  8  9  10  11  12  13  14  15  16  26  30  31  32  33  35 0
 6-311+G(2d,p)
 ****
 37  38 0
 6-311+G(2d,p)
 ****
 1  2  3  4  5  17  18  19  20  21  22  23  24  25 0
 3-21G
 ****
 27  28  29  34  36  39  40  41  42  43  44  45  46 0
 3-21G
 ****


