%nproc=1
%NoSave
%Mem=1900MB
#P OB98/GEN NMR

erre ene a

0 1
  C       50.193    -339.760      46.329
  O       51.019    -340.864      46.021
  H       50.344    -338.987      45.571
  H       50.466    -339.351      47.305
  H       49.138    -340.046      46.330
  P       50.800    -342.239      46.813
  C       51.328    -343.917      44.926
  O       51.774    -343.319      46.134
  C       51.796    -343.106      43.714
  O       53.216    -342.805      43.879
  C       51.638    -343.839      42.367
  O       51.376    -342.846      41.368
  C       53.021    -344.435      42.196
  O       53.237    -344.893      40.886
  C       53.875    -343.261      42.680
  N       55.264    -343.616      42.938
  C       56.117    -343.701      41.843
  O       55.771    -343.471      40.685
  N       57.406    -344.074      42.119
  C       57.907    -344.369      43.353
  O       59.076    -344.677      43.547
  C       56.950    -344.291      44.468
  C       55.692    -343.922      44.213
  O       49.384    -342.678      46.971
  O       51.496    -341.974      48.230
  H       50.818    -341.723      48.886
  H       54.179    -345.131      40.755
  H       58.037    -344.141      41.335
  H       57.311    -344.539      45.456
  H       54.959    -343.855      45.010
  H       53.842    -342.435      41.961
  H       53.146    -345.301      42.853
  H       50.829    -344.575      42.374
  H       51.268    -342.144      43.705
  H       50.234    -343.954      44.945
  H       51.716    -344.938      44.863
  P       49.926    -342.608      40.719
  C       50.406    -340.479      39.345
  O       50.091    -341.865      39.306
  O       48.964    -341.928      41.639
  O       49.390    -344.065      40.325
  H       48.425    -344.100      40.466
  H       50.489    -340.104      38.346
  H       51.335    -340.339      39.857
  H       49.631    -339.952      39.861

 6  7  8  9  10  11  12  13  14  15  16  27  31  32  33  34  35 0
 6-311+G(2d,p)
 ****
 36  37 0
 6-311+G(2d,p)
 ****
 1  2  3  4  5  17  18  19  20  21  22  23  24  25 0
 3-21G
 ****
 26  28  29  30  38  39  40  41  42  43  44  45 0
 3-21G
 ****


