%nproc=1
%NoSave
%Mem=1900MB
#P OB98/GEN NMR

erre ene a

0 1
  C      -55.935     -94.611     111.255
  O      -56.922     -95.497     110.725
  P      -56.549     -96.415     109.463
  C      -56.081     -98.503     110.888
  O      -56.852     -97.949     109.830
  C      -56.099    -100.038     110.883
  O      -57.403    -100.542     111.284
  C      -55.766    -100.672     109.525
  O      -55.031    -101.873     109.789
  C      -57.141    -100.993     108.972
  O      -57.096    -101.949     107.922
  C      -57.855    -101.440     110.252
  N      -59.302    -101.424     110.120
  C      -59.917    -102.594     109.669
  O      -59.230    -103.548     109.303
  N      -61.290    -102.636     109.614
  C      -61.972    -101.557     109.843
  N      -63.331    -101.644     109.801
  C      -61.346    -100.257     110.146
  C      -60.025    -100.269     110.292
  O      -55.202     -96.166     108.866
  O      -57.713     -96.068     108.415
  H      -56.320    -101.761     107.353
  H      -57.343     -96.099     107.511
  H      -61.952     -99.368     110.247
  H      -59.474     -99.369     110.518
  H      -57.540    -102.454     110.539
  H      -57.603    -100.078     108.576
  H      -55.171    -100.021     108.876
  H      -55.374    -100.385     111.634
  H      -63.746    -102.539     109.567
  H      -56.473     -98.143     111.844
  H      -63.933    -100.862     110.018
  H      -55.055     -98.123     110.819
  P      -53.427    -101.822     109.759
  C      -52.698    -101.736     112.253
  O      -52.887    -102.523     111.096
  O      -53.144    -100.269     110.060
  O      -52.779    -102.218     108.471
  H      -52.270    -100.029     109.692
  H      -52.606    -102.403     113.116
  H      -53.547    -101.069     112.425
  H      -51.779    -101.151     112.161
  H      -56.345     -94.077     112.087
  H      -55.636     -93.916     110.498
  H      -55.085     -95.176     111.577

 3  4  5  6  7  8  9  10  11  12  13  23  27  28  29  30  32 0
 6-311+G(2d,p)
 ****
 34  35 0
 6-311+G(2d,p)
 ****
 1  2  14  15  16  17  18  19  20  21  22  24  25  26 0
 3-21G
 ****
 31  33  36  37  38  39  40  41  42  43  44  45  46 0
 3-21G
 ****


