%nproc=1
%NoSave
%Mem=1900MB
#P OB98/GEN NMR

erre ene a

0 1
  C       89.972      22.292     -52.146
  O       89.399      21.006     -52.264
  P       88.292      20.494     -51.229
  C       86.445      21.955     -52.238
  O       87.191      21.647     -51.069
  C       85.038      22.438     -51.890
  O       84.319      22.746     -53.113
  C       84.205      21.422     -51.098
  O       83.431      22.159     -50.146
  C       83.308      20.814     -52.159
  O       82.136      20.229     -51.607
  C       83.070      22.029     -53.062
  N       82.618      21.653     -54.392
  C       81.239      21.635     -54.609
  O       80.462      21.799     -53.667
  N       80.780      21.415     -55.883
  C       81.614      21.057     -56.810
  N       81.127      20.916     -58.073
  C       83.048      20.824     -56.551
  C       83.486      21.179     -55.347
  O       88.827      19.965     -49.940
  O       87.503      19.352     -52.030
  H       87.492      18.536     -51.493
  H       81.597      19.855     -52.335
  H       83.679      20.406     -57.321
  H       84.529      21.072     -55.069
  H       82.329      22.702     -52.613
  H       83.855      20.034     -52.701
  H       84.821      20.686     -50.572
  H       85.129      23.372     -51.323
  H       80.148      21.124     -58.220
  H       86.371      21.050     -52.843
  H       81.731      20.956     -58.892
  H       86.976      22.709     -52.830
  P       83.052      21.446     -48.757
  C       85.103      22.347     -47.449
  O       84.408      21.219     -47.935
  O       82.704      19.955     -49.245
  O       81.893      22.017     -48.008
  H       82.098      19.545     -48.601
  H       86.029      22.010     -46.977
  H       84.502      22.870     -46.700
  H       85.353      23.028     -48.266
  H       90.685      22.438     -52.930
  H       90.461      22.379     -51.198
  H       89.204      23.033     -52.220

 3  4  5  6  7  8  9  10  11  12  13  24  27  28  29  30  32 0
 6-311+G(2d,p)
 ****
 34  35 0
 6-311+G(2d,p)
 ****
 1  2  14  15  16  17  18  19  20  21  22  23  25  26 0
 3-21G
 ****
 31  33  36  37  38  39  40  41  42  43  44  45  46 0
 3-21G
 ****


