%nproc=1
%NoSave
%Mem=1900MB
#P OB98/GEN NMR

erre ene a

0 1
  C     -258.534    -697.268     179.170
  O     -258.161    -698.605     178.898
  H     -259.100    -697.246     180.104
  H     -259.177    -696.884     178.369
  H     -257.650    -696.635     179.278
  P     -257.323    -698.910     177.567
  C     -259.436    -699.244     176.105
  O     -258.295    -698.445     176.371
  C     -259.683    -699.320     174.596
  O     -260.053    -698.029     174.060
  C     -258.475    -699.751     173.770
  O     -258.172    -701.128     173.877
  C     -258.970    -699.371     172.381
  O     -259.924    -700.344     171.928
  C     -259.635    -698.008     172.666
  N     -258.738    -696.874     172.416
  C     -258.770    -696.327     171.130
  O     -259.509    -696.787     170.267
  N     -257.928    -695.276     170.840
  C     -257.118    -694.831     171.749
  N     -256.302    -693.792     171.405
  C     -257.038    -695.397     173.112
  C     -257.869    -696.400     173.379
  O     -256.769    -700.296     177.443
  O     -256.195    -697.770     177.530
  H     -259.520    -701.218     172.057
  H     -255.639    -697.920     176.729
  H     -256.316    -695.010     173.821
  H     -257.864    -696.871     174.350
  H     -260.542    -697.884     172.058
  H     -258.164    -699.337     171.639
  H     -257.601    -699.133     174.008
  H     -260.540    -699.994     174.439
  H     -256.374    -693.429     170.470
  H     -260.291    -698.801     176.624
  H     -255.580    -693.436     172.026
  H     -259.276    -700.258     176.481
  P     -256.606    -701.528     173.873
  C     -256.705    -702.357     171.392
  O     -256.133    -701.464     172.342
  O     -256.637    -703.092     174.212
  O     -255.746    -700.744     174.819
  H     -256.446    -703.241     175.160
  H     -256.276    -702.175     170.429
  H     -257.763    -702.200     171.347
  H     -256.506    -703.366     171.686

 6  7  8  9  10  11  12  13  14  15  16  26  30  31  32  33  35 0
 6-311+G(2d,p)
 ****
 37  38 0
 6-311+G(2d,p)
 ****
 1  2  3  4  5  17  18  19  20  21  22  23  24  25 0
 3-21G
 ****
 27  28  29  34  36  39  40  41  42  43  44  45  46 0
 3-21G
 ****


