%nproc=1
%NoSave
%Mem=1900MB
#P OB98/GEN NMR

erre ene a

0 1
  C     -228.577      72.877     -90.478
  O     -229.228      73.576     -91.549
  P     -228.432      74.416     -92.662
  C     -228.756      76.874     -91.952
  O     -229.138      75.845     -92.855
  C     -229.783      78.013     -91.921
  O     -229.707      78.790     -93.157
  C     -231.243      77.550     -91.760
  O     -231.880      78.503     -90.903
  C     -231.763      77.647     -93.187
  O     -233.175      77.678     -93.277
  C     -231.062      78.934     -93.633
  N     -231.080      79.191     -95.069
  C     -231.479      80.465     -95.498
  O     -231.857      81.320     -94.701
  N     -231.457      80.738     -96.846
  C     -231.085      79.829     -97.687
  N     -231.078      80.170     -99.006
  C     -230.678      78.474     -97.284
  C     -230.696      78.229     -95.975
  O     -228.237      73.673     -93.946
  O     -227.018      74.773     -92.000
  H     -226.328      74.754     -92.688
  H     -233.410      77.966     -94.178
  H     -230.366      77.746     -98.020
  H     -230.381      77.261     -95.592
  H     -231.499      79.789     -93.102
  H     -231.413      76.774     -93.747
  H     -231.340      76.555     -91.317
  H     -229.508      78.695     -91.107
  H     -231.354      81.116     -99.244
  H     -227.792      77.278     -92.273
  H     -230.801      79.545     -99.746
  H     -228.633      76.445     -90.953
  P     -232.921      77.999     -89.792
  C     -235.218      79.039     -90.452
  O     -234.058      79.120     -89.648
  O     -232.086      78.206     -88.437
  O     -233.374      76.580     -89.904
  H     -232.418      77.592     -87.759
  H     -236.093      79.241     -89.830
  H     -235.337      78.054     -90.912
  H     -235.160      79.796     -91.240
  H     -229.312      72.394     -89.869
  H     -228.022      73.572     -89.884
  H     -227.912      72.143     -90.883

 3  4  5  6  7  8  9  10  11  12  13  24  27  28  29  30  32 0
 6-311+G(2d,p)
 ****
 34  35 0
 6-311+G(2d,p)
 ****
 1  2  14  15  16  17  18  19  20  21  22  23  25  26 0
 3-21G
 ****
 31  33  36  37  38  39  40  41  42  43  44  45  46 0
 3-21G
 ****


