%nproc=1
%NoSave
%Mem=1900MB
#P OB98/GEN NMR

erre ene a

0 1
  C      -24.593     -42.920     663.136
  O      -23.295     -42.832     663.695
  H      -25.003     -43.907     663.351
  H      -24.550     -42.785     662.048
  H      -25.242     -42.157     663.578
  P      -22.496     -41.458     663.454
  C      -22.394     -39.776     661.486
  O      -22.993     -40.955     662.008
  C      -22.357     -39.839     659.962
  O      -23.515     -40.530     659.456
  C      -22.358     -38.471     659.280
  O      -21.039     -37.941     659.228
  C      -22.860     -38.838     657.891
  O      -21.771     -39.360     657.106
  C      -23.882     -39.948     658.182
  N      -28.449     -40.039     655.829
  C      -27.214     -40.416     655.406
  N      -26.036     -40.312     656.072
  C      -26.218     -39.765     657.279
  C      -27.420     -39.336     657.840
  C      -28.574     -39.497     657.054
  N      -29.828     -39.110     657.483
  N      -27.216     -38.816     659.107
  C      -25.921     -38.996     659.329
  N      -25.270     -39.534     658.247
  O      -21.022     -41.523     663.663
  O      -23.285     -40.473     664.448
  H      -21.576     -40.253     657.452
  H      -24.240     -40.646     664.416
  H      -27.166     -40.855     654.420
  H      -25.425     -38.773     660.269
  H      -23.836     -40.756     657.433
  H      -23.260     -37.979     657.348
  H      -23.073     -37.784     659.748
  H      -21.479     -40.414     659.657
  H      -21.381     -39.666     661.878
  H      -30.559     -39.085     656.789
  H      -29.894     -38.586     658.343
  H      -22.993     -38.925     661.823
  P      -20.783     -36.401     658.869
  C      -21.684     -34.869     657.006
  O      -21.389     -36.210     657.396
  O      -19.366     -35.952     659.044
  O      -21.817     -35.594     659.795
  H      -21.557     -34.661     659.841
  H      -22.080     -34.866     656.012
  H      -20.789     -34.284     657.035
  H      -22.405     -34.452     657.678

 6  7  8  9  10  11  12  13  14  15  25  28  32  33  34  35 0
 6-311+G(2d,p)
 ****
 36  39  40 0
 6-311+G(2d,p)
 ****
 1  2  3  4  5  16  17  18  19  20  21  22  23  24 0
 3-21G
 ****
 26  27  29  30  31  37  38  41  42  43  44  45  46  47 0
 3-21G
 ****
 48 0
 3-21G
 ****


