%nproc=1
%NoSave
%Mem=1900MB
#P OB98/GEN NMR

erre ene a

0 1
  C      203.979    -505.476    -635.618
  O      203.014    -504.715    -634.918
  P      202.660    -503.256    -635.500
  C      202.419    -502.504    -633.017
  O      202.958    -502.230    -634.312
  C      203.503    -502.359    -631.944
  O      204.557    -503.309    -632.183
  C      204.176    -501.000    -631.928
  O      203.346    -500.041    -631.293
  C      205.458    -501.311    -631.159
  O      205.242    -501.221    -629.740
  C      205.751    -502.770    -631.580
  N      206.898    -502.878    -632.470
  C      208.146    -502.539    -631.924
  O      208.204    -502.168    -630.745
  N      209.257    -502.607    -632.710
  C      209.139    -502.974    -633.957
  N      210.274    -503.015    -634.697
  C      207.853    -503.298    -634.586
  C      206.773    -503.233    -633.800
  O      201.059    -503.278    -635.587
  O      203.294    -502.941    -636.813
  H      206.058    -501.566    -629.324
  H      200.736    -502.661    -636.276
  H      207.803    -503.602    -635.623
  H      205.787    -503.464    -634.169
  H      205.952    -503.385    -630.688
  H      206.255    -500.613    -631.411
  H      204.426    -500.673    -632.945
  H      203.056    -502.586    -630.974
  H      211.149    -502.773    -634.247
  H      202.036    -503.527    -632.994
  H      210.295    -503.308    -635.669
  H      201.584    -501.812    -632.825
  P      202.863    -498.787    -632.160
  C      204.492    -497.447    -630.688
  O      204.041    -497.708    -632.008
  O      201.705    -498.150    -631.237
  O      202.393    -499.057    -633.551
  H      201.268    -497.427    -631.715
  H      205.375    -496.825    -630.732
  H      204.731    -498.381    -630.173
  H      203.704    -496.905    -630.133
  H      204.117    -506.416    -635.126
  H      204.907    -504.944    -635.637
  H      203.643    -505.643    -636.620

 3  4  5  6  7  8  9  10  11  12  13  21  23  27  28  29  30  32 0
 6-311+G(2d,p)
 ****
 34  35 0
 6-311+G(2d,p)
 ****
 1  2  14  15  16  17  18  19  20  22  24  25  26 0
 3-21G
 ****
 31  33  36  37  38  39  40  41  42  43  44  45  46 0
 3-21G
 ****


