%nproc=1
%NoSave
%Mem=1900MB
#P OB98/GEN NMR

erre ene a

0 1
  C     -890.469    -445.931     -60.662
  O     -891.829    -446.394     -60.543
  P     -892.969    -445.340     -60.952
  C     -893.506    -444.186     -58.694
  O     -892.870    -444.079     -59.959
  C     -893.494    -442.867     -57.920
  O     -894.047    -441.787     -58.744
  C     -894.319    -442.890     -56.625
  O     -893.642    -442.041     -55.678
  C     -895.620    -442.232     -57.023
  O     -896.340    -441.753     -55.899
  C     -895.090    -441.142     -57.967
  N     -899.220    -438.229     -58.090
  C     -898.470    -438.696     -57.002
  N     -898.870    -438.285     -55.801
  N     -897.440    -439.494     -57.120
  C     -897.140    -439.797     -58.411
  C     -897.770    -439.394     -59.560
  C     -898.930    -438.531     -59.422
  O     -899.620    -438.093     -60.345
  N     -897.150    -439.894     -60.694
  C     -896.170    -440.649     -60.207
  N     -896.090    -440.578     -58.836
  O     -894.327    -446.076     -60.522
  O     -892.969    -444.990     -62.411
  H     -896.540    -442.524     -55.328
  H     -894.751    -446.487     -61.298
  H     -900.000    -437.636     -57.936
  H     -895.480    -441.217     -60.785
  H     -894.638    -440.299     -57.407
  H     -896.240    -442.947     -57.580
  H     -899.630    -437.626     -55.641
  H     -894.452    -443.897     -56.191
  H     -898.320    -438.561     -54.981
  H     -892.444    -442.612     -57.698
  H     -892.994    -444.958     -58.082
  H     -894.528    -444.560     -58.838
  P     -892.253    -442.560     -55.043
  C     -893.389    -443.863     -53.089
  O     -892.595    -443.921     -54.267
  O     -891.987    -441.522     -53.852
  O     -891.112    -442.607     -55.998
  H     -891.047    -441.318     -53.806
  H     -893.897    -444.830     -52.982
  H     -894.143    -443.063     -53.174
  H     -892.739    -443.687     -52.237
  H     -889.799    -446.711     -60.365
  H     -890.326    -445.079     -60.031
  H     -890.272    -445.660     -61.678

 3  4  5  6  7  8  9  10  11  12  23  26  30  31 0
 6-311+G(2d,p)
 ****
 33  35  36  37  38 0
 6-311+G(2d,p)
 ****
 1  2  13  14  15  16  17  18  19  20  21  22  24  25 0
 3-21G
 ****
 27  28  29  32  34  39  40  41  42  43  44  45  46  47  48  49 0
 3-21G
 ****


