%nproc=1
%NoSave
%Mem=1900MB
#P OB98/GEN NMR

erre ene a

0 1
  C     -148.991      20.611       9.093
  O     -147.591      20.827       9.014
  P     -146.848      20.935       7.593
  C     -146.632      19.352       5.560
  O     -147.031      19.493       6.918
  C     -146.740      17.887       5.137
  O     -145.747      17.109       5.832
  C     -148.078      17.236       5.458
  O     -149.080      17.643       4.538
  C     -147.699      15.759       5.404
  O     -147.645      15.308       4.040
  C     -146.279      15.775       6.008
  N     -146.256      15.379       7.413
  C     -145.631      14.160       7.706
  O     -145.127      13.475       6.819
  N     -145.563      13.757       9.019
  C     -146.089      14.491       9.953
  N     -145.930      14.074      11.241
  C     -146.803      15.751       9.682
  C     -146.842      16.134       8.404
  O     -145.437      21.419       7.658
  O     -147.806      21.856       6.707
  H     -147.088      14.502       4.035
  H     -147.617      22.825       6.794
  H     -147.236      16.321      10.492
  H     -147.330      17.059       8.124
  H     -145.618      15.107       5.441
  H     -148.396      15.108       5.945
  H     -148.396      17.496       6.476
  H     -146.533      17.826       4.059
  H     -145.288      13.304      11.392
  H     -145.589      19.676       5.467
  H     -146.049      14.711      12.020
  H     -147.258      19.992       4.930
  P     -150.515      18.043       5.134
  C     -152.390      16.755       6.386
  O     -151.146      16.681       5.711
  O     -151.380      18.364       3.827
  O     -150.489      19.190       6.091
  H     -151.451      19.327       3.694
  H     -152.783      15.741       6.497
  H     -153.105      17.351       5.814
  H     -152.250      17.188       7.381
  H     -149.288      20.570      10.120
  H     -149.237      19.687       8.613
  H     -149.504      21.413       8.605

 3  4  5  6  7  8  9  10  11  12  13  23  27  28  29  30  32 0
 6-311+G(2d,p)
 ****
 34  35 0
 6-311+G(2d,p)
 ****
 1  2  14  15  16  17  18  19  20  21  22  24  25  26 0
 3-21G
 ****
 31  33  36  37  38  39  40  41  42  43  44  45  46 0
 3-21G
 ****


