%nproc=1
%NoSave
%Mem=1900MB
#P OB98/GEN NMR

erre ene a

0 1
  C      -90.275      11.035     144.285
  O      -91.288      11.875     143.767
  P      -90.928      13.274     143.076
  C      -89.426      14.058     141.156
  O      -89.655      13.048     142.128
  C      -87.932      14.310     140.958
  O      -87.395      14.977     142.134
  C      -87.103      13.041     140.716
  O      -86.096      13.367     139.750
  C      -86.476      12.780     142.072
  O      -85.307      11.974     141.983
  C      -86.249      14.212     142.564
  N      -86.076      14.286     144.007
  C      -84.761      14.304     144.486
  O      -83.822      14.133     143.715
  N      -84.560      14.506     145.829
  C      -85.577      14.494     146.640
  N      -85.338      14.762     147.953
  C      -86.958      14.219     146.193
  C      -87.141      14.170     144.872
  O      -90.806      14.430     144.015
  O      -92.121      13.514     142.028
  H      -92.509      14.398     142.187
  H      -85.520      11.163     141.475
  H      -87.751      14.096     146.915
  H      -88.125      14.004     144.445
  H      -85.365      14.652     142.081
  H      -87.198      12.263     142.718
  H      -87.705      12.208     140.343
  H      -87.811      15.005     140.111
  H      -84.387      14.987     148.215
  H      -89.903      14.980     141.497
  H      -86.074      15.086     148.580
  H      -89.897      13.778     140.204
  P      -85.455      12.171     138.883
  C      -86.347      10.421     137.188
  O      -86.658      11.391     138.168
  O      -85.017      11.137     140.030
  O      -84.274      12.521     138.037
  H      -84.288      10.583     139.699
  H      -87.278      10.040     136.764
  H      -85.802       9.585     137.640
  H      -85.748      10.861     136.384
  H      -90.719      10.155     144.701
  H      -89.735      11.556     145.047
  H      -89.605      10.758     143.498

 3  4  5  6  7  8  9  10  11  12  13  24  27  28  29  30  32 0
 6-311+G(2d,p)
 ****
 34  35 0
 6-311+G(2d,p)
 ****
 1  2  14  15  16  17  18  19  20  21  22  23  25  26 0
 3-21G
 ****
 31  33  36  37  38  39  40  41  42  43  44  45  46 0
 3-21G
 ****


