%nproc=1
%NoSave
%Mem=1900MB
#P OB98/GEN NMR

erre ene a

0 1
  C     -150.745    -663.735     -88.716
  O     -151.346    -664.546     -87.726
  H     -149.935    -663.160     -88.258
  H     -151.484    -663.038     -89.128
  H     -150.332    -664.355     -89.515
  P     -152.554    -665.484     -88.210
  C     -152.612    -667.880     -89.229
  O     -151.882    -666.680     -89.045
  C     -151.686    -668.995     -89.735
  O     -151.084    -668.569     -90.996
  C     -150.525    -669.322     -88.778
  O     -150.171    -670.705     -88.967
  C     -149.414    -668.434     -89.328
  O     -148.159    -668.809     -88.806
  C     -149.647    -668.630     -90.825
  N     -145.343    -667.383     -93.299
  C     -145.701    -668.499     -92.616
  N     -146.870    -668.758     -91.993
  C     -147.734    -667.740     -92.147
  C     -147.517    -666.551     -92.826
  C     -146.252    -666.386     -93.419
  N     -145.884    -665.255     -94.113
  N     -148.639    -665.742     -92.763
  C     -149.520    -666.438     -92.061
  N     -149.010    -667.643     -91.659
  O     -153.286    -664.600     -89.326
  O     -153.498    -665.918     -87.135
  H     -147.435    -668.318     -89.245
  H     -154.032    -664.118     -88.930
  H     -144.945    -669.275     -92.553
  H     -150.519    -666.109     -91.808
  H     -149.318    -669.617     -91.162
  H     -149.578    -667.388     -89.041
  H     -150.762    -669.146     -87.726
  H     -152.285    -669.888     -89.955
  H     -153.407    -667.700     -89.960
  H     -153.065    -668.190     -88.281
  H     -144.957    -665.207     -94.496
  H     -146.542    -664.491     -94.193
  P     -150.633    -671.787     -87.874
  C     -152.519    -673.597     -87.697
  O     -151.758    -672.727     -88.527
  O     -151.496    -670.892     -86.861
  O     -149.528    -672.491     -87.147
  H     -151.466    -671.280     -85.965
  H     -153.216    -674.143     -88.297
  H     -153.050    -673.021     -86.969
  H     -151.863    -674.281     -87.201

 6  7  8  9  10  11  12  13  14  15  25  28  32  33  34  35 0
 6-311+G(2d,p)
 ****
 36  37  40 0
 6-311+G(2d,p)
 ****
 1  2  3  4  5  16  17  18  19  20  21  22  23  24 0
 3-21G
 ****
 26  27  29  30  31  38  39 41  42  43  44  45  46  47  48 0
 3-21G
 ****


