%nproc=1
%NoSave
%Mem=1900MB
#P OB98/GEN NMR

erre ene a

0 1
  C       93.471    -644.201    -899.047
  O       93.219    -642.799    -899.227
  P       93.170    -641.868    -897.917
  C       95.450    -640.668    -898.317
  O       94.675    -641.542    -897.487
  C       95.816    -639.394    -897.557
  O       94.647    -638.593    -897.257
  C       96.512    -639.654    -896.217
  O       97.893    -639.885    -896.367
  C       96.283    -638.326    -895.507
  O       97.247    -637.358    -895.967
  C       94.871    -637.945    -895.977
  N       91.938    -636.386    -892.147
  C       92.888    -635.694    -892.887
  N       93.076    -634.405    -892.547
  N       93.588    -636.228    -893.847
  C       93.279    -637.522    -894.087
  C       92.369    -638.321    -893.427
  C       91.611    -637.711    -892.347
  O       90.768    -638.288    -891.637
  N       92.338    -639.585    -893.937
  C       93.220    -639.561    -894.917
  N       93.832    -638.343    -895.037
  O       92.691    -642.893    -896.777
  O       92.259    -640.698    -898.047
  H       97.122    -637.278    -896.927
  H       92.220    -642.400    -896.077
  H       91.443    -635.943    -891.407
  H       93.449    -640.409    -895.567
  H       94.764    -636.859    -896.147
  H       96.411    -638.413    -894.417
  H       92.535    -633.904    -891.847
  H       95.991    -640.473    -895.667
  H       93.747    -633.876    -893.097
  H       96.496    -638.810    -898.197
  H       94.893    -640.411    -899.227
  H       96.336    -641.198    -898.657
  P       98.523    -641.167    -895.627
  C       98.561    -642.491    -897.877
  O       98.124    -642.441    -896.527
  O       97.613    -641.318    -894.317
  O       99.978    -641.042    -895.297
  H       98.142    -641.688    -893.577
  H       98.338    -643.489    -898.267
  H       99.650    -642.315    -897.937
  H       98.019    -641.738    -898.467
  H       93.474    -644.688    -900.000
  H       92.705    -644.625    -898.433
  H       94.422    -644.335    -898.575

 3  4  5  6  7  8  9  10  11  12  23  26  30  31 0
 6-311+G(2d,p)
 ****
 33  35  36  37  38 0
 6-311+G(2d,p)
 ****
 1  2  13  14  15  16  17  18  19  20  21  22  24  25 0
 3-21G
 ****
 27  28  29  32  34  39  40  41  42  43  44  45  46  47  48  49 0
 3-21G
 ****


