%nproc=1
%NoSave
%Mem=1900MB
#P OB98/GEN NMR

erre ene a

0 1
  C     -470.580    -698.282     -85.759
  O     -469.850    -697.697     -86.839
  P     -469.737    -698.564     -88.185
  C     -469.853    -696.641     -89.920
  O     -469.051    -697.647     -89.316
  C     -469.965    -695.401     -89.028
  O     -468.645    -694.882     -88.696
  C     -470.743    -694.250     -89.663
  O     -471.440    -693.557     -88.617
  C     -469.654    -693.352     -90.203
  O     -470.138    -692.026     -90.432
  C     -468.617    -693.501     -89.098
  N     -465.297    -689.634     -89.431
  C     -466.548    -689.709     -88.938
  N     -467.376    -690.772     -88.908
  C     -466.774    -691.859     -89.419
  C     -465.499    -691.933     -89.972
  C     -464.746    -690.751     -89.962
  N     -463.476    -690.666     -90.496
  N     -465.245    -693.208     -90.438
  C     -466.351    -693.888     -90.179
  N     -467.284    -693.121     -89.536
  O     -471.258    -698.685     -88.670
  O     -469.118    -699.910     -87.994
  H     -470.814    -692.068     -91.142
  H     -471.579    -699.600     -88.530
  H     -466.944    -688.787     -88.521
  H     -466.518    -694.912     -90.434
  H     -468.844    -692.882     -88.216
  H     -469.271    -693.753     -91.152
  H     -471.459    -694.560     -90.442
  H     -470.447    -695.698     -88.080
  H     -470.856    -697.030     -90.120
  H     -463.013    -689.772     -90.482
  H     -463.072    -691.476     -90.938
  H     -469.426    -696.390     -90.899
  P     -473.043    -693.644     -88.650
  C     -473.685    -693.317     -86.145
  O     -473.562    -692.732     -87.438
  O     -473.358    -695.143     -88.153
  O     -473.642    -693.350     -89.978
  H     -474.217    -695.431     -88.506
  H     -473.331    -692.592     -85.404
  H     -473.084    -694.230     -86.060
  H     -474.727    -693.539     -85.961
  H     -470.583    -697.611     -84.926
  H     -470.117    -699.203     -85.473
  H     -471.587    -698.470     -86.069

 3  4  5  6  7  8  9  10  11  12  22  25  29  30  31  32 0
 6-311+G(2d,p)
 ****
 33  36  37 0
 6-311+G(2d,p)
 ****
 1  2  13  14  15  16  17  18  19  20  21  23  24  26 0
 3-21G
 ****
 27  28  34  35  38  39  40  41  42  43  44  45  46  47  48 0
 3-21G
 ****


