%nproc=1
%NoSave
%Mem=1900MB
#P OB98/GEN NMR

erre ene a

0 1
  C       -7.218      52.558     -38.807
  O       -5.940      52.442     -38.216
  H       -7.140      53.192     -39.694
  H       -7.921      53.018     -38.107
  H       -7.586      51.573     -39.106
  P       -5.866      51.630     -36.832
  C       -6.118      49.086     -36.306
  O       -6.260      50.131     -37.256
  C       -7.263      48.092     -36.458
  O       -8.515      48.693     -36.062
  C       -7.480      47.605     -37.887
  O       -6.552      46.607     -38.277
  C       -8.889      47.055     -37.777
  O       -8.860      45.784     -37.102
  C       -9.564      48.134     -36.899
  N      -10.214      49.187     -37.680
  C      -11.518      48.930     -38.117
  O      -12.068      47.862     -37.855
  N      -12.162      49.881     -38.873
  C      -11.562      50.994     -39.159
  N      -12.241      51.893     -39.922
  C      -10.196      51.312     -38.706
  C       -9.589      50.377     -37.981
  O       -7.167      52.119     -36.038
  O       -4.594      51.754     -36.065
  H       -9.776      45.452     -37.084
  H       -7.281      51.581     -35.218
  H       -9.734      52.250     -38.979
  H       -8.581      50.540     -37.615
  H      -10.308      47.686     -36.230
  H       -9.364      46.894     -38.746
  H       -7.483      48.436     -38.600
  H       -7.075      47.252     -35.776
  H      -13.151      51.621     -40.270
  H       -6.129      49.527     -35.304
  H      -11.795      52.698     -40.342
  H       -5.165      48.569     -36.458
  P       -6.222      46.469     -39.843
  C       -4.984      48.089     -41.450
  O       -5.919      47.946     -40.390
  O       -7.646      46.125     -40.482
  O       -5.191      45.437     -40.181
  H       -7.562      45.471     -41.201
  H       -4.888      49.124     -41.704
  H       -5.327      47.543     -42.304
  H       -4.033      47.708     -41.141

 6  7  8  9  10  11  12  13  14  15  16  26  30  31  32  33  35 0
 6-311+G(2d,p)
 ****
 37  38 0
 6-311+G(2d,p)
 ****
 1  2  3  4  5  17  18  19  20  21  22  23  24  25 0
 3-21G
 ****
 27  28  29  34  36  39  40  41  42  43  44  45  46 0
 3-21G
 ****


