%nproc=1
%NoSave
%Mem=1900MB
#P OB98/GEN NMR

erre ene a

0 1
  C      151.307     172.279    -137.317
  O      151.266     170.988    -136.696
  P      151.154     170.945    -135.096
  C      149.590     168.993    -134.310
  O      150.885     169.407    -134.724
  C      149.158     167.760    -135.101
  O      149.009     168.081    -136.505
  C      150.151     166.607    -135.051
  O      150.115     165.944    -133.796
  C      149.680     165.770    -136.234
  O      148.547     164.971    -135.863
  C      149.251     166.859    -137.245
  N      150.222     167.062    -138.314
  C      149.706     167.493    -139.531
  O      148.498     167.676    -139.723
  N      150.617     167.691    -140.532
  C      151.959     167.474    -140.446
  O      152.731     167.680    -141.373
  C      152.444     166.969    -139.145
  C      151.569     166.789    -138.156
  O      149.744     171.664    -134.865
  O      152.312     171.587    -134.412
  H      149.098     171.465    -135.563
  H      147.814     165.596    -135.690
  H      150.263     168.015    -141.419
  H      153.503     166.763    -139.051
  H      151.904     166.415    -137.193
  H      148.292     166.586    -137.703
  H      150.458     165.092    -136.603
  H      151.166     166.983    -135.243
  H      148.180     167.432    -134.716
  H      148.869     169.799    -134.475
  H      149.613     168.786    -133.236
  P      151.528     165.531    -133.152
  C      151.134     166.630    -130.810
  O      151.298     165.452    -131.566
  O      152.367     166.882    -133.355
  O      152.144     164.325    -133.776
  H      151.861     167.682    -133.128
  H      150.649     166.373    -129.861
  H      150.507     167.358    -131.334
  H      152.109     167.071    -130.600
  H      151.382     172.162    -138.378
  H      152.157     172.821    -136.957
  H      150.414     172.818    -137.079

 3  4  5  6  7  8  9  10  11  12  13  24  28  29  30  31  32 0
 6-311+G(2d,p)
 ****
 33  34 0
 6-311+G(2d,p)
 ****
 1  2  14  15  16  17  18  19  20  21  22  23  25  26  27 0
 3-21G
 ****
 35  36  37  38  39  40  41  42  43  44  45 0
 3-21G
 ****


