%nproc=1
%NoSave
%Mem=1900MB
#P OB98/GEN NMR

erre ene a

0 1
  C      -77.487     187.068    -522.200
  O      -76.169     187.090    -522.714
  H      -78.155     186.655    -522.962
  H      -77.811     188.084    -521.966
  H      -77.544     186.442    -521.305
  P      -75.001     187.469    -521.681
  C      -75.498     189.929    -522.353
  O      -75.212     189.017    -521.303
  C      -74.770     191.249    -522.122
  O      -75.051     191.756    -520.794
  C      -73.248     191.152    -522.221
  O      -72.802     191.213    -523.572
  C      -72.837     192.396    -521.453
  O      -73.020     193.565    -522.281
  C      -73.845     192.399    -520.297
  N      -72.151     192.928    -515.545
  C      -72.508     193.891    -516.476
  N      -72.392     195.176    -516.083
  N      -72.943     193.620    -517.676
  C      -72.999     192.288    -517.936
  C      -72.672     191.243    -517.100
  C      -72.207     191.557    -515.768
  O      -71.895     190.744    -514.902
  N      -72.874     190.030    -517.709
  C      -73.299     190.340    -518.918
  N      -73.386     191.699    -519.110
  O      -73.685     187.493    -522.601
  O      -74.840     186.540    -520.526
  H      -72.889     194.340    -521.707
  H      -72.933     187.157    -522.079
  H      -71.815     193.195    -514.638
  H      -73.557     189.627    -519.689
  H      -74.122     193.415    -519.986
  H      -71.789     192.379    -521.156
  H      -72.016     195.458    -515.191
  H      -72.869     190.262    -521.711
  H      -72.676     195.899    -516.735
  H      -75.157     191.984    -522.844
  H      -76.578     190.113    -522.386
  H      -75.184     189.488    -523.306
  P      -71.369     190.571    -523.912
  C      -70.519     193.016    -524.136
  O      -70.296     191.721    -523.586
  O      -71.370     190.509    -525.515
  O      -71.113     189.238    -523.296
  H      -70.744     189.826    -525.820
  H      -69.729     193.672    -523.836
  H      -71.454     193.398    -523.782
  H      -70.542     192.951    -525.204

 6  7  8  9  10  11  12  13  14  15  26  29  33  34 0
 6-311+G(2d,p)
 ****
 36  38  39  40  41 0
 6-311+G(2d,p)
 ****
 1  2  3  4  5  16  17  18  19  20  21  22  23  24  25 0
 3-21G
 ****
 27  28  30  31  32  35  37  42  43  44  45  46  47 0
 3-21G
 ****
 48  49 0
 3-21G
 ****


