%nproc=1
%NoSave
%Mem=1900MB
#P OB98/GEN NMR

erre ene a

0 1
  C      379.093    -463.364    -764.457
  O      380.040    -463.119    -765.474
  H      379.603    -463.341    -763.488
  H      378.644    -464.352    -764.596
  H      378.316    -462.598    -764.467
  P      379.491    -463.087    -766.978
  C      378.359    -464.897    -768.463
  O      379.281    -464.617    -767.415
  C      377.562    -466.151    -768.122
  O      376.492    -465.810    -767.200
  C      376.869    -466.794    -769.318
  O      377.761    -467.569    -770.102
  C      375.797    -467.624    -768.629
  O      376.313    -468.881    -768.183
  C      375.406    -466.744    -767.430
  N      370.362    -466.848    -766.698
  C      371.353    -467.668    -766.282
  N      372.681    -467.564    -766.511
  C      372.945    -466.457    -767.229
  C      372.046    -465.527    -767.716
  C      370.687    -465.759    -767.422
  N      369.681    -464.933    -767.868
  N      372.702    -464.549    -768.446
  C      373.969    -464.885    -768.386
  N      374.171    -466.024    -767.661
  O      380.770    -462.623    -767.827
  O      378.319    -462.192    -767.208
  H      376.475    -469.411    -768.990
  H      380.699    -461.666    -768.027
  H      371.034    -468.531    -765.695
  H      374.784    -464.332    -768.853
  H      375.282    -467.329    -766.512
  H      374.968    -467.827    -769.311
  H      376.385    -466.016    -769.932
  H      378.225    -466.872    -767.616
  H      378.911    -465.073    -769.398
  H      377.689    -464.038    -768.592
  H      368.727    -465.195    -767.679
  H      369.900    -464.181    -768.503
  P      377.381    -467.814    -771.637
  C      375.642    -469.278    -772.917
  O      376.239    -468.929    -771.668
  O      378.658    -468.565    -772.235
  O      377.052    -466.568    -772.405
  H      378.810    -468.286    -773.165
  H      374.902    -470.034    -772.760
  H      376.395    -469.648    -773.581
  H      375.182    -468.413    -773.347

 6  7  8  9  10  11  12  13  14  15  25  28  32  33  34  35 0
 6-311+G(2d,p)
 ****
 36  37  40 0
 6-311+G(2d,p)
 ****
 1  2  3  4  5  16  17  18  19  20  21  22  23  24 0
 3-21G
 ****
 26  27  29  30  31  38  39 41  42  43  44  45  46  47  48 0
 3-21G
 ****


