%nproc=1
%NoSave
%Mem=1900MB
#P OB98/GEN NMR

erre ene a

0 1
  C      -63.251     103.834    -258.115
  O      -64.327     103.612    -257.216
  P      -64.750     102.095    -256.929
  C      -67.121     102.990    -256.269
  O      -66.361     102.032    -256.994
  C      -68.620     102.764    -256.517
  O      -68.966     103.111    -257.888
  C      -69.049     101.309    -256.351
  O      -69.198     100.976    -254.973
  C      -70.366     101.281    -257.127
  O      -71.444     101.759    -256.319
  C      -70.059     102.259    -258.287
  N      -69.790     101.575    -259.548
  C      -70.919     101.164    -260.273
  O      -72.064     101.332    -259.877
  N      -70.667     100.518    -261.451
  C      -69.431     100.183    -261.940
  O      -69.254      99.547    -262.978
  C      -68.279     100.610    -261.111
  C      -68.506     101.276    -259.974
  O      -64.423     101.897    -255.367
  O      -64.062     101.087    -257.779
  H      -72.174     101.995    -256.929
  H      -64.118     100.978    -255.210
  H      -71.457     100.233    -261.994
  H      -67.282     100.377    -261.487
  H      -67.674     101.589    -259.354
  H      -70.927     102.927    -258.445
  H      -70.612     100.268    -257.454
  H      -68.322     100.651    -256.835
  H      -69.195     103.424    -255.845
  H      -66.834     103.999    -256.611
  H      -66.895     102.899    -255.198
  P      -68.159      99.894    -254.375
  C      -70.007      99.420    -252.566
  O      -69.069      98.894    -253.510
  O      -67.391     100.801    -253.296
  O      -67.293      99.285    -255.410
  H      -67.965     101.484    -252.895
  H      -70.461     100.340    -252.916
  H      -69.502      99.586    -251.618
  H      -70.799      98.665    -252.427
  H      -63.078     104.886    -258.212
  H      -63.495     103.423    -259.072
  H      -62.368     103.361    -257.738

 3  4  5  6  7  8  9  10  11  12  13  23  28  29  30  31  32 0
 6-311+G(2d,p)
 ****
 33  34 0
 6-311+G(2d,p)
 ****
 1  2  14  15  16  17  18  19  20  21  22  24  25  26 0
 3-21G
 ****
 27  35  36  37  38  39  40  41  42  43  44  45 0
 3-21G
 ****


