%nproc=1
%NoSave
%Mem=1900MB
#P OB98/GEN NMR

erre ene a

0 1
  C      -76.542    -464.006    -208.979
  O      -77.256    -463.126    -208.133
  H      -76.655    -463.663    -210.010
  H      -76.941    -465.020    -208.900
  H      -75.479    -464.002    -208.724
  P      -77.285    -463.434    -206.561
  C      -78.675    -464.964    -205.013
  O      -78.375    -464.592    -206.353
  C      -79.073    -466.437    -204.950
  O      -80.343    -466.643    -205.597
  C      -78.086    -467.384    -205.628
  O      -76.992    -467.667    -204.768
  C      -78.974    -468.596    -205.857
  O      -79.141    -469.313    -204.619
  C      -80.304    -467.937    -206.265
  N      -83.090    -469.101    -210.345
  C      -83.140    -469.614    -209.064
  N      -84.038    -470.598    -208.845
  N      -82.372    -469.207    -208.087
  C      -81.471    -468.269    -208.467
  C      -81.313    -467.699    -209.709
  C      -82.217    -468.107    -210.765
  O      -82.221    -467.662    -211.907
  N      -80.235    -466.849    -209.738
  C      -79.775    -466.869    -208.501
  N      -80.487    -467.726    -207.691
  O      -77.479    -462.250    -205.662
  O      -75.898    -464.182    -206.281
  H      -79.876    -469.942    -204.747
  H      -75.204    -463.549    -206.020
  H      -83.701    -469.459    -211.060
  H      -78.937    -466.285    -208.138
  H      -81.170    -468.511    -205.916
  H      -78.559    -469.297    -206.582
  H      -84.551    -471.053    -209.586
  H      -77.756    -466.996    -206.597
  H      -84.048    -471.025    -207.928
  H      -79.206    -466.703    -203.894
  H      -79.500    -464.330    -204.671
  H      -77.808    -464.790    -204.367
  P      -75.520    -467.950    -205.348
  C      -74.607    -470.010    -206.622
  O      -75.704    -469.137    -206.412
  O      -74.475    -468.196    -204.313
  O      -75.222    -466.696    -206.297
  H      -74.854    -465.922    -205.806
  H      -74.872    -470.746    -207.352
  H      -74.355    -470.494    -205.702
  H      -73.766    -469.448    -206.971

 6  7  8  9  10  11  12  13  14  15  26  29  33  34 0
 6-311+G(2d,p)
 ****
 36  38  39  40  41 0
 6-311+G(2d,p)
 ****
 1  2  3  4  5  16  17  18  19  20  21  22  23  24  25 0
 3-21G
 ****
 27  28  30  31  32  35  37  42  43  44  45  46  47 0
 3-21G
 ****
 48  49 0
 3-21G
 ****


