%nproc=1
%NoSave
%Mem=1900MB
#P OB98/GEN NMR

erre ene a

0 1
  C       33.027      64.572     -81.965
  O       32.954      63.810     -83.153
  H       32.334      64.147     -81.233
  H       32.734      65.605     -82.167
  H       34.038      64.545     -81.550
  P       34.040      64.140     -84.287
  C       32.530      66.157     -84.914
  O       33.847      65.688     -84.667
  C       32.527      67.127     -86.091
  O       33.534      68.147     -85.905
  C       32.824      66.479     -87.439
  O       31.664      65.881     -88.005
  C       33.263      67.691     -88.242
  O       32.107      68.461     -88.635
  C       34.091      68.468     -87.211
  N       38.799      70.339     -87.409
  C       37.581      70.993     -87.439
  N       37.623      72.338     -87.549
  N       36.425      70.385     -87.374
  C       36.535      69.038     -87.280
  C       37.682      68.277     -87.238
  C       38.953      68.961     -87.303
  O       40.061      68.433     -87.255
  N       37.394      66.941     -87.128
  C       36.077      66.893     -87.123
  N       35.507      68.138     -87.221
  O       33.476      63.373     -85.577
  O       35.438      63.722     -83.976
  H       31.522      67.857     -89.129
  H       34.230      63.030     -86.093
  H       39.659      70.854     -87.474
  H       35.491      65.987     -87.050
  H       34.014      69.552     -87.344
  H       33.794      67.422     -89.157
  H       38.478      72.863     -87.653
  H       33.655      65.767     -87.370
  H       36.746      72.842     -87.540
  H       31.551      67.631     -86.111
  H       32.158      66.670     -84.022
  H       31.883      65.301     -85.129
  P       31.878      64.633     -88.994
  C       32.515      66.219     -90.950
  O       32.911      65.140     -90.111
  O       30.488      64.557     -89.785
  O       32.213      63.346     -88.322
  H       30.351      63.655     -90.133
  H       33.302      66.442     -91.639
  H       32.311      67.081     -90.350
  H       31.634      65.945     -91.492

 6  7  8  9  10  11  12  13  14  15  26  29  33  34 0
 6-311+G(2d,p)
 ****
 36  38  39  40  41 0
 6-311+G(2d,p)
 ****
 1  2  3  4  5  16  17  18  19  20  21  22  23  24  25 0
 3-21G
 ****
 27  28  30  31  32  35  37  42  43  44  45  46  47 0
 3-21G
 ****
 48  49 0
 3-21G
 ****


