%nproc=1
%NoSave
%Mem=1900MB
#P OB98/GEN NMR

erre ene a

0 1
  C     -110.601     252.683      12.447
  O     -110.315     252.868      11.076
  H     -111.259     253.491      12.781
  H     -109.676     252.719      13.029
  H     -111.107     251.726      12.607
  P     -109.506     251.690      10.341
  C     -107.346     253.184      10.315
  O     -107.959     251.957      10.669
  C     -105.991     253.332      11.012
  O     -105.180     252.169      10.701
  C     -105.210     254.575      10.583
  O     -104.495     255.073      11.715
  C     -104.225     254.033       9.562
  O     -103.082     254.874       9.420
  C     -103.938     252.635      10.134
  N     -103.429     251.711       9.121
  C     -102.058     251.768       8.853
  O     -101.342     252.577       9.449
  N     -101.534     250.944       7.893
  C     -102.319     250.171       7.209
  N     -101.742     249.395       6.255
  C     -103.779     250.112       7.426
  C     -104.258     250.893       8.392
  O     -109.647     252.107       8.802
  O     -109.998     250.317      10.656
  H     -103.380     255.747       9.081
  H     -109.494     253.054       8.643
  H     -104.394     249.460       6.824
  H     -105.316     250.905       8.626
  H     -103.201     252.693      10.946
  H     -104.704     253.951       8.580
  H     -105.854     255.360      10.177
  H     -106.155     253.324      12.094
  H     -100.742     249.486       6.124
  H     -107.989     254.024      10.590
  H     -102.263     248.800       5.626
  H     -107.217     253.195       9.228
  P     -105.167     256.181      12.650
  C     -104.586     258.224      11.173
  O     -105.616     257.431      11.751
  O     -104.418     256.530      13.890
  O     -106.583     255.511      13.024
  H     -106.760     255.697      13.967
  H     -105.024     259.017      10.603
  H     -103.984     257.615      10.532
  H     -103.976     258.637      11.949

 6  7  8  9  10  11  12  13  14  15  16  26  30  31  32  33  35 0
 6-311+G(2d,p)
 ****
 37  38 0
 6-311+G(2d,p)
 ****
 1  2  3  4  5  17  18  19  20  21  22  23  24  25 0
 3-21G
 ****
 27  28  29  34  36  39  40  41  42  43  44  45  46 0
 3-21G
 ****


