%nproc=1
%NoSave
%Mem=1900MB
#P OB98/GEN NMR

erre ene a

0 1
  C     -120.082     -89.648      74.737
  O     -119.001     -90.260      75.406
  H     -120.713     -89.150      75.478
  H     -120.677     -90.412      74.226
  H     -119.737     -88.905      74.013
  P     -117.707     -90.673      74.560
  C     -118.407     -93.158      74.591
  O     -118.042     -92.042      73.788
  C     -117.855     -94.471      74.031
  O     -118.395     -94.718      72.713
  C     -116.335     -94.437      73.867
  O     -115.590     -94.746      75.031
  C     -116.116     -95.490      72.781
  O     -116.030     -96.805      73.354
  C     -117.379     -95.357      71.923
  N     -115.619     -95.382      67.124
  C     -115.578     -96.389      68.070
  N     -114.936     -97.522      67.711
  N     -116.103     -96.278      69.263
  C     -116.627     -95.055      69.515
  C     -116.712     -93.975      68.663
  C     -116.176     -94.127      67.324
  O     -116.180     -93.263      66.451
  N     -117.316     -92.899      69.269
  C     -117.526     -93.303      70.507
  N     -117.147     -94.613      70.698
  O     -116.662     -91.155      75.679
  O     -117.122     -89.584      73.712
  H     -116.882     -97.010      73.781
  H     -115.751     -91.036      75.357
  H     -115.222     -95.532      66.213
  H     -117.966     -92.700      71.293
  H     -117.769     -96.342      71.634
  H     -115.182     -95.320      72.235
  H     -114.418     -97.610      66.849
  H     -116.014     -93.466      73.472
  H     -114.655     -98.169      68.451
  H     -118.174     -95.300      74.674
  H     -119.499     -93.189      74.609
  H     -118.070     -93.010      75.621
  P     -114.337     -93.840      75.447
  C     -112.671     -95.163      73.948
  O     -113.277     -93.926      74.246
  O     -113.656     -94.693      76.619
  O     -114.681     -92.459      75.892
  H     -113.953     -94.365      77.488
  H     -111.997     -95.041      73.126
  H     -113.425     -95.876      73.688
  H     -112.131     -95.511      74.804

 6  7  8  9  10  11  12  13  14  15  26  29  33  34 0
 6-311+G(2d,p)
 ****
 36  38  39  40  41 0
 6-311+G(2d,p)
 ****
 1  2  3  4  5  16  17  18  19  20  21  22  23  24  25 0
 3-21G
 ****
 27  28  30  31  32  35  37  42  43  44  45  46  47 0
 3-21G
 ****
 48  49 0
 3-21G
 ****


