%nproc=1
%NoSave
%Mem=1900MB
#P OB98/GEN NMR

erre ene a

0 1
  C     -690.325     618.250     217.714
  O     -691.726     618.232     217.505
  H     -689.829     618.340     216.743
  H     -689.991     617.328     218.195
  H     -690.051     619.114     218.330
  P     -692.666     617.843     218.750
  C     -692.543     615.328     218.166
  O     -692.270     616.336     219.137
  C     -692.723     613.958     218.826
  O     -691.532     613.610     219.560
  C     -693.857     613.903     219.842
  O     -695.142     614.008     219.274
  C     -693.492     612.687     220.682
  O     -693.961     611.458     220.137
  C     -691.939     612.715     220.629
  N     -691.352     613.109     221.903
  C     -691.406     612.148     222.912
  O     -691.924     611.036     222.771
  N     -690.880     612.517     224.125
  C     -690.360     613.749     224.422
  O     -689.936     614.032     225.546
  C     -690.362     614.733     223.333
  C     -690.858     614.369     222.142
  O     -694.144     618.045     218.536
  O     -692.067     618.700     219.957
  H     -693.515     610.743     220.630
  H     -692.716     618.758     220.708
  H     -690.897     611.830     224.860
  H     -689.961     615.722     223.544
  H     -690.861     615.085     221.318
  H     -691.549     611.726     220.370
  H     -693.887     612.765     221.693
  H     -693.757     614.775     220.511
  H     -692.867     613.203     218.036
  H     -691.692     615.283     217.473
  H     -693.450     615.599     217.601
  P     -696.396     614.632     220.048
  C     -697.233     612.253     220.695
  O     -696.906     613.563     221.144
  O     -697.423     615.343     219.213
  O     -695.668     615.741     220.976
  H     -696.285     616.491     221.059
  H     -697.553     611.660     221.527
  H     -696.371     611.804     220.248
  H     -698.021     612.310     219.973

 6  7  8  9  10  11  12  13  14  15  16  26  31  32  33  34  35 0
 6-311+G(2d,p)
 ****
 36  37 0
 6-311+G(2d,p)
 ****
 1  2  3  4  5  17  18  19  20  21  22  23  24  25 0
 3-21G
 ****
 27  28  29  30  38  39  40  41  42  43  44  45 0
 3-21G
 ****


