%nproc=1
%NoSave
%Mem=1900MB
#P OB98/GEN NMR

erre ene a

0 1
  C      -70.937       0.186     428.892
  O      -71.536       0.282     430.173
  P      -70.663       0.614     431.476
  C      -72.194       2.168     432.839
  O      -71.736       0.834     432.650
  C      -73.128       2.239     434.039
  O      -74.345       1.520     433.715
  C      -72.615       1.590     435.326
  O      -71.772       2.424     436.110
  C      -73.922       1.355     436.069
  O      -74.371       2.587     436.667
  C      -74.868       0.941     434.937
  N      -77.031      -2.859     432.280
  C      -77.115      -1.516     432.168
  N      -76.522      -0.569     432.925
  C      -75.740      -1.133     433.858
  C      -75.550      -2.485     434.094
  C      -76.240      -3.374     433.248
  N      -76.135      -4.744     433.353
  N      -74.688      -2.682     435.157
  C      -74.357      -1.467     435.543
  N      -74.960      -0.503     434.787
  O      -69.666       1.703     431.292
  O      -69.990      -0.783     431.868
  H      -73.682       2.857     437.307
  H      -69.240      -0.637     432.475
  H      -77.746      -1.146     431.363
  H      -73.693      -1.243     436.366
  H      -75.883       1.335     435.073
  H      -73.829       0.624     436.878
  H      -72.138       0.623     435.121
  H      -73.393       3.288     434.212
  H      -72.740       2.474     431.934
  H      -76.559      -5.299     432.625
  H      -75.422      -5.123     433.963
  H      -71.338       2.838     432.961
  P      -71.381       1.899     437.581
  C      -68.997       2.952     437.779
  O      -70.352       2.979     438.163
  O      -70.924       0.482     437.630
  O      -72.718       2.171     438.421
  H      -72.943       3.105     438.550
  H      -68.503       3.853     438.158
  H      -68.895       2.927     436.694
  H      -68.500       2.077     438.216
  H      -71.687      -0.041     428.164
  H      -70.201      -0.590     428.900
  H      -70.471       1.117     428.646

 3  4  5  6  7  8  9  10  11  12  22  25  29  30  31  32 0
 6-311+G(2d,p)
 ****
 33  36  37 0
 6-311+G(2d,p)
 ****
 1  2  13  14  15  16  17  18  19  20  21  23  24  26 0
 3-21G
 ****
 27  28  34  35  38  39  40  41  42  43  44  45  46  47  48 0
 3-21G
 ****


