%nproc=1
%NoSave
%Mem=1900MB
#P OB98/GEN NMR

erre ene a

0 1
  C      -87.777     -56.046     -39.591
  O      -87.605     -54.898     -40.404
  P      -88.906     -54.070     -40.845
  C      -89.368     -55.881     -42.692
  O      -89.862     -55.100     -41.620
  C      -90.301     -57.067     -42.960
  O      -90.364     -57.896     -41.765
  C      -91.740     -56.675     -43.323
  O      -92.215     -57.639     -44.273
  C      -92.473     -56.824     -42.001
  O      -93.872     -56.994     -42.166
  C      -91.755     -58.042     -41.410
  N      -91.904     -58.159     -39.959
  C      -92.831     -59.076     -39.473
  O      -93.544     -59.777     -40.190
  N      -92.937     -59.147     -38.106
  C      -92.274     -58.366     -37.206
  O      -92.422     -58.459     -35.992
  C      -91.346     -57.381     -37.779
  C      -91.198     -57.332     -39.105
  O      -88.306     -53.146     -42.005
  O      -89.558     -53.333     -39.724
  H      -87.621     -53.593     -42.531
  H      -94.225     -56.197     -42.602
  H      -93.576     -59.833     -37.730
  H      -90.811     -56.731     -37.095
  H      -90.520     -56.614     -39.551
  H      -92.115     -58.959     -41.892
  H      -92.310     -55.927     -41.391
  H      -91.805     -55.669     -43.747
  H      -89.858     -57.680     -43.756
  H      -88.374     -56.260     -42.439
  H      -89.271     -55.252     -43.584
  P      -93.320     -57.166     -45.345
  C      -95.325     -58.249     -44.053
  O      -94.725     -57.087     -44.579
  O      -93.464     -58.509     -46.214
  O      -92.934     -55.982     -46.168
  H      -93.576     -59.302     -45.667
  H      -96.067     -57.955     -43.303
  H      -94.587     -58.899     -43.576
  H      -95.832     -58.796     -44.854
  H      -86.822     -56.484     -39.385
  H      -88.392     -56.756     -40.103
  H      -88.246     -55.765     -38.671

 3  4  5  6  7  8  9  10  11  12  13  24  28  29  30  31  32 0
 6-311+G(2d,p)
 ****
 33  34 0
 6-311+G(2d,p)
 ****
 1  2  14  15  16  17  18  19  20  21  22  23  25  26  27 0
 3-21G
 ****
 35  36  37  38  39  40  41  42  43  44  45 0
 3-21G
 ****


