%nproc=1
%NoSave
%Mem=1900MB
#P OB98/GEN NMR

erre ene a

0 1
  C      215.881      31.724    -104.282
  O      216.232      31.358    -102.965
  P      215.205      30.695    -101.936
  C      214.756      32.942    -100.712
  O      215.184      31.590    -100.600
  C      214.483      33.599     -99.350
  O      213.464      32.854     -98.654
  C      215.739      33.536     -98.474
  O      216.754      34.509     -98.614
  C      215.221      33.348     -97.054
  O      215.174      34.573     -96.322
  C      213.811      32.793     -97.262
  N      211.965      29.778     -93.628
  C      211.679      31.104     -93.887
  N      210.958      31.747     -92.942
  N      212.085      31.737     -94.956
  C      212.876      30.987     -95.758
  C      213.217      29.663     -95.615
  C      212.728      28.965     -94.451
  O      213.029      27.814     -94.142
  N      214.096      29.255     -96.584
  C      214.322      30.340     -97.293
  N      213.634      31.428     -96.806
  O      215.254      29.207    -101.801
  O      213.789      31.070    -102.615
  H      216.025      35.031     -96.450
  H      213.175      30.332    -102.438
  H      211.691      29.365     -92.746
  H      214.994      30.403     -98.140
  H      213.073      33.403     -96.728
  H      215.877      32.676     -96.489
  H      210.755      31.334     -92.042
  H      216.244      32.591     -98.716
  H      210.876      32.756     -93.014
  H      214.083      34.608     -99.474
  H      213.855      32.950    -101.331
  H      215.515      33.523    -101.243
  P      218.197      34.289     -99.268
  C      219.094      32.918     -97.303
  O      219.260      34.086     -98.088
  O      218.590      35.727     -99.854
  O      218.249      33.256    -100.345
  H      219.259      35.624    -100.557
  H      219.655      33.032     -96.373
  H      219.483      32.052     -97.850
  H      218.039      32.752     -97.067
  H      216.733      32.145    -104.774
  H      215.092      32.446    -104.253
  H      215.552      30.858    -104.817

 3  4  5  6  7  8  9  10  11  12  23  26  30  31 0
 6-311+G(2d,p)
 ****
 33  35  36  37  38 0
 6-311+G(2d,p)
 ****
 1  2  13  14  15  16  17  18  19  20  21  22  24  25 0
 3-21G
 ****
 27  28  29  32  34  39  40  41  42  43  44  45  46  47  48  49 0
 3-21G
 ****


