%nproc=1
%NoSave
%Mem=1900MB
#P OB98/GEN NMR

erre ene a

0 1
  C      198.377    -294.879    -126.715
  O      198.806    -293.736    -125.961
  P      200.120    -292.962    -126.461
  C      199.662    -291.858    -128.772
  O      199.665    -291.707    -127.355
  C      198.581    -290.979    -129.427
  O      197.272    -291.253    -128.861
  C      198.828    -289.471    -129.240
  O      198.286    -288.787    -130.380
  C      197.985    -289.147    -128.023
  O      197.723    -287.742    -127.928
  C      196.765    -290.027    -128.286
  N      192.606    -292.242    -126.488
  C      193.061    -292.124    -127.796
  N      192.310    -292.715    -128.745
  N      194.154    -291.484    -128.122
  C      194.815    -290.980    -127.047
  C      194.470    -291.024    -125.719
  C      193.247    -291.714    -125.372
  O      192.778    -291.848    -124.235
  N      195.390    -290.377    -124.933
  C      196.288    -289.928    -125.793
  N      196.008    -290.303    -127.080
  O      200.736    -293.982    -127.542
  O      201.097    -292.662    -125.371
  H      197.238    -287.483    -128.742
  H      201.553    -294.389    -127.174
  H      191.748    -292.739    -126.291
  H      197.159    -289.338    -125.533
  H      196.071    -289.577    -129.014
  H      198.513    -289.458    -127.112
  H      191.485    -293.263    -128.556
  H      199.879    -289.188    -129.120
  H      192.642    -292.667    -129.706
  H      198.541    -291.218    -130.493
  H      199.482    -292.905    -129.034
  H      200.655    -291.619    -129.160
  P      199.333    -288.215    -131.455
  C      199.330    -290.259    -133.056
  O      198.962    -288.912    -132.850
  O      200.720    -288.916    -131.039
  O      199.448    -286.726    -131.485
  H      201.471    -288.379    -131.338
  H      198.448    -290.898    -132.939
  H      200.105    -290.584    -132.353
  H      199.731    -290.368    -134.073
  H      197.496    -295.290    -126.269
  H      199.153    -295.616    -126.718
  H      198.163    -294.583    -127.721

 3  4  5  6  7  8  9  10  11  12  23  26  30  31 0
 6-311+G(2d,p)
 ****
 33  35  36  37  38 0
 6-311+G(2d,p)
 ****
 1  2  13  14  15  16  17  18  19  20  21  22  24  25 0
 3-21G
 ****
 27  28  29  32  34  39  40  41  42  43  44  45  46  47  48  49 0
 3-21G
 ****


