%nproc=1
%NoSave
%Mem=1900MB
#P OB98/GEN NMR

erre ene a

0 1
  C     -123.964    -878.420    -492.289
  O     -124.987    -878.478    -493.264
  H     -123.282    -877.608    -492.543
  H     -123.402    -879.358    -492.266
  H     -124.394    -878.222    -491.300
  P     -126.059    -879.665    -493.178
  C     -128.289    -880.041    -491.923
  O     -127.297    -879.107    -492.321
  C     -129.588    -879.328    -491.528
  O     -129.302    -878.399    -490.442
  C     -130.212    -878.506    -492.671
  O     -131.630    -878.484    -492.460
  C     -129.618    -877.129    -492.409
  O     -130.299    -876.129    -493.131
  C     -129.696    -877.084    -490.882
  N     -128.852    -876.042    -490.317
  C     -129.490    -874.856    -489.954
  O     -130.702    -874.727    -490.131
  N     -128.742    -873.832    -489.426
  C     -127.454    -873.957    -489.331
  N     -126.767    -872.906    -488.818
  C     -126.732    -875.177    -489.757
  C     -127.485    -876.172    -490.227
  O     -125.526    -880.987    -492.731
  O     -126.659    -879.750    -494.661
  H     -131.253    -876.115    -492.902
  H     -126.290    -880.529    -495.121
  H     -125.655    -875.229    -489.679
  H     -127.042    -877.103    -490.565
  H     -130.728    -876.917    -490.546
  H     -128.572    -877.095    -492.740
  H     -129.980    -878.903    -493.664
  H     -130.297    -880.065    -491.141
  H     -127.306    -872.085    -488.546
  H     -127.893    -880.599    -491.068
  H     -125.766    -872.882    -488.720
  H     -128.490    -880.746    -492.737
  P     -132.538    -879.800    -492.586
  C     -132.527    -881.941    -491.134
  O     -132.642    -880.519    -491.154
  O     -132.140    -880.721    -493.698
  O     -134.031    -879.254    -492.827
  H     -134.519    -879.892    -493.378
  H     -132.613    -882.292    -490.127
  H     -131.576    -882.228    -491.531
  H     -133.306    -882.370    -491.729

 6  7  8  9  10  11  12  13  14  15  16  26  30  31  32  33  35 0
 6-311+G(2d,p)
 ****
 37  38 0
 6-311+G(2d,p)
 ****
 1  2  3  4  5  17  18  19  20  21  22  23  24  25 0
 3-21G
 ****
 27  28  29  34  36  39  40  41  42  43  44  45  46 0
 3-21G
 ****


