%nproc=1
%NoSave
%Mem=1900MB
#P OB98/GEN NMR

erre ene a

0 1
  C       66.973    -101.882     -89.713
  O       68.081    -101.974     -90.588
  H       67.009    -102.720     -89.013
  H       66.038    -101.934     -90.278
  H       67.020    -100.948     -89.147
  P       68.194    -100.848     -91.724
  C       70.266     -99.648     -90.742
  O       69.756    -100.485     -91.771
  C       71.789     -99.577     -90.817
  O       72.365    -100.843     -90.452
  C       72.335     -99.241     -92.199
  O       72.319     -97.839     -92.412
  C       73.757     -99.768     -92.084
  O       74.576     -98.804     -91.394
  C       73.585    -101.026     -91.215
  N       76.052    -105.332     -92.529
  C       76.482    -104.198     -91.936
  N       75.786    -103.072     -91.667
  C       74.510    -103.195     -92.067
  C       73.928    -104.290     -92.687
  C       74.757    -105.402     -92.913
  N       74.314    -106.557     -93.520
  N       72.597    -104.053     -92.957
  C       72.365    -102.858     -92.454
  N       73.498    -102.282     -91.937
  O       67.254     -99.699     -91.592
  O       68.007    -101.731     -93.048
  H       74.274     -98.790     -90.466
  H       68.486    -102.574     -92.966
  H       77.527    -104.191     -91.642
  H       71.396    -102.375     -92.419
  H       74.406    -101.137     -90.497
  H       74.221     -99.942     -93.056
  H       71.811     -99.790     -92.988
  H       72.128     -98.841     -90.076
  H       69.962    -100.027     -89.760
  H       75.013    -107.220     -93.814
  H       73.387    -106.555     -93.920
  H       69.832     -98.652     -90.877
  P       71.885     -97.221     -93.827
  C       69.538     -96.394     -93.183
  O       70.882     -96.024     -93.466
  O       71.378     -98.220     -94.808
  O       73.190     -96.454     -94.339
  H       73.116     -96.272     -95.296
  H       68.967     -95.518     -92.958
  H       69.520     -97.057     -92.344
  H       69.116     -96.885     -94.035

 6  7  8  9  10  11  12  13  14  15  25  28  32  33  34  35 0
 6-311+G(2d,p)
 ****
 36  39  40 0
 6-311+G(2d,p)
 ****
 1  2  3  4  5  16  17  18  19  20  21  22  23  24 0
 3-21G
 ****
 26  27  29  30  31  37  38  41  42  43  44  45  46  47 0
 3-21G
 ****
 48 0
 3-21G
 ****


