%nproc=1
%NoSave
%Mem=1900MB
#P OB98/GEN NMR

erre ene a

0 1
  C      719.361    -763.130     263.066
  O      719.733    -764.484     262.971
  H      718.325    -763.027     262.722
  H      720.005    -762.516     262.429
  H      719.424    -762.768     264.098
  P      721.076    -764.964     263.707
  C      719.674    -766.639     265.087
  O      720.640    -765.604     265.110
  C      719.782    -767.526     266.334
  O      721.029    -768.270     266.273
  C      719.824    -766.687     267.620
  O      719.305    -767.400     268.738
  C      721.310    -766.456     267.818
  O      721.656    -766.158     269.174
  C      721.886    -767.781     267.317
  N      726.003    -770.191     265.499
  C      724.880    -770.720     266.082
  N      724.836    -772.070     266.195
  N      723.891    -769.988     266.533
  C      724.094    -768.663     266.417
  C      725.184    -768.007     265.880
  C      726.260    -768.826     265.342
  O      727.295    -768.415     264.843
  N      725.055    -766.645     265.955
  C      723.881    -766.466     266.533
  N      723.251    -767.659     266.818
  O      721.780    -763.593     264.146
  O      721.998    -765.819     262.880
  H      722.630    -766.158     269.244
  H      722.740    -763.731     264.281
  H      726.724    -770.802     265.132
  H      723.440    -765.498     266.756
  H      721.904    -768.533     268.119
  H      721.617    -765.604     267.213
  H      725.647    -772.643     266.033
  H      719.305    -765.735     267.515
  H      724.169    -772.445     266.890
  H      718.972    -768.264     266.339
  H      719.854    -767.222     264.180
  H      718.668    -766.223     264.996
  P      718.653    -766.564     269.950
  C      716.326    -766.686     268.701
  O      717.246    -765.969     269.509
  O      719.595    -765.258     270.051
  O      718.584    -767.299     271.241
  H      720.069    -765.246     270.905
  H      715.455    -766.088     268.536
  H      716.047    -767.593     269.196
  H      716.782    -766.919     267.761

 6  7  8  9  10  11  12  13  14  15  26  29  33  34 0
 6-311+G(2d,p)
 ****
 36  38  39  40  41 0
 6-311+G(2d,p)
 ****
 1  2  3  4  5  16  17  18  19  20  21  22  23  24  25 0
 3-21G
 ****
 27  28  30  31  32  35  37  42  43  44  45  46  47 0
 3-21G
 ****
 48  49 0
 3-21G
 ****


