%nproc=1
%NoSave
%Mem=1900MB
#P OB98/GEN NMR

erre ene a

0 1
  C     -291.999    -801.854    1353.638
  O     -292.148    -801.314    1354.935
  H     -291.017    -801.576    1353.241
  H     -292.769    -801.467    1352.970
  H     -292.058    -802.946    1353.678
  P     -293.548    -801.493    1355.687
  C     -293.245    -799.781    1357.599
  O     -293.884    -800.078    1356.375
  C     -293.178    -798.259    1357.836
  O     -292.097    -797.699    1357.023
  C     -294.477    -797.516    1357.428
  O     -294.593    -796.368    1358.278
  C     -294.156    -797.107    1356.004
  O     -295.071    -796.141    1355.530
  C     -292.684    -796.706    1356.149
  N     -292.002    -796.606    1354.869
  C     -292.028    -795.359    1354.250
  O     -292.621    -794.405    1354.763
  N     -291.392    -795.223    1353.026
  C     -290.850    -796.248    1352.464
  N     -290.266    -796.056    1351.253
  C     -290.862    -797.603    1353.078
  C     -291.440    -797.709    1354.276
  O     -293.648    -802.682    1356.599
  O     -294.623    -801.579    1354.493
  H     -294.843    -795.849    1354.615
  H     -294.909    -802.503    1354.378
  H     -290.394    -798.441    1352.549
  H     -291.493    -798.655    1354.798
  H     -292.606    -795.724    1356.658
  H     -294.242    -797.961    1355.317
  H     -295.374    -798.149    1357.510
  H     -292.930    -798.064    1358.884
  H     -290.293    -795.111    1350.855
  H     -292.218    -800.176    1357.539
  H     -289.832    -796.802    1350.698
  H     -293.758    -800.258    1358.436
  P     -296.006    -795.732    1358.690
  C     -296.442    -796.770    1361.026
  O     -296.094    -795.594    1360.284
  O     -297.202    -796.427    1358.082
  O     -295.943    -794.196    1358.194
  H     -296.834    -793.893    1357.943
  H     -296.465    -796.539    1362.071
  H     -295.715    -797.534    1360.846
  H     -297.406    -797.115    1360.716

 6  7  8  9  10  11  12  13  14  15  16  26  30  31  32  33  35 0
 6-311+G(2d,p)
 ****
 37  38 0
 6-311+G(2d,p)
 ****
 1  2  3  4  5  17  18  19  20  21  22  23  24  25 0
 3-21G
 ****
 27  28  29  34  36  39  40  41  42  43  44  45  46 0
 3-21G
 ****


