%nproc=1
%NoSave
%Mem=1900MB
#P OB98/GEN NMR

erre ene a

0 1
  C     -115.648     -94.359    -211.433
  O     -114.300     -94.304    -211.001
  P     -113.830     -93.055    -210.116
  C     -115.281     -93.752    -208.073
  O     -114.985     -92.758    -209.041
  C     -115.298     -93.142    -206.671
  O     -115.607     -94.183    -205.696
  C     -113.967     -92.503    -206.251
  O     -114.271     -91.378    -205.414
  C     -113.327     -93.598    -205.417
  O     -112.307     -93.119    -204.555
  C     -114.564     -94.149    -204.701
  N     -114.340     -95.466    -204.109
  C     -114.954     -95.732    -202.889
  O     -115.666     -94.929    -202.288
  N     -114.672     -96.950    -202.333
  C     -113.789     -97.871    -202.818
  O     -113.492     -98.893    -202.212
  C     -113.169     -97.537    -204.110
  C     -113.469     -96.370    -204.686
  O     -113.934     -91.825    -211.133
  O     -112.464     -93.183    -209.532
  H     -112.712     -92.467    -203.955
  H     -113.053     -91.600    -211.487
  H     -115.117     -97.165    -201.455
  H     -112.479     -98.254    -204.533
  H     -113.010     -96.089    -205.629
  H     -114.890     -93.450    -203.919
  H     -112.882     -94.347    -206.081
  H     -113.343     -92.193    -207.095
  H     -116.108     -92.403    -206.622
  H     -114.519     -94.533    -208.116
  H     -116.247     -94.214    -208.306
  P     -113.357     -90.065    -205.558
  C     -115.187     -88.961    -207.061
  O     -113.832     -89.316    -206.891
  O     -111.953     -90.723    -205.964
  O     -113.294     -89.238    -204.315
  H     -112.049     -91.432    -206.621
  H     -115.654     -88.686    -206.113
  H     -115.730     -89.801    -207.501
  H     -115.246     -88.108    -207.743
  H     -115.802     -95.247    -212.009
  H     -115.865     -93.501    -212.035
  H     -116.295     -94.370    -210.581

 3  4  5  6  7  8  9  10  11  12  13  23  28  29  30  31  32 0
 6-311+G(2d,p)
 ****
 33  34 0
 6-311+G(2d,p)
 ****
 1  2  14  15  16  17  18  19  20  21  22  24  25  26 0
 3-21G
 ****
 27  35  36  37  38  39  40  41  42  43  44  45 0
 3-21G
 ****


