%nproc=1
%NoSave
%Mem=1900MB
#P OB98/GEN NMR

erre ene a

0 1
  C      -51.167      70.547     268.925
  O      -51.426      69.512     267.986
  P      -52.240      69.902     266.656
  C      -50.173      70.590     265.242
  O      -51.223      69.651     265.440
  C      -49.774      70.646     263.770
  O      -49.085      69.436     263.396
  C      -50.942      70.770     262.803
  O      -51.395      72.106     262.677
  C      -50.294      70.304     261.509
  O      -49.511      71.371     260.944
  C      -49.378      69.175     261.997
  N      -50.476      65.396     258.734
  C      -49.940      66.620     258.546
  N      -49.689      67.574     259.465
  C      -50.089      67.177     260.685
  C      -50.686      65.974     261.022
  C      -50.870      65.048     259.983
  N      -51.391      63.790     260.182
  N      -50.957      65.930     262.372
  C      -50.523      67.079     262.844
  N      -49.981      67.863     261.865
  O      -52.326      71.498     266.742
  O      -53.583      69.271     266.531
  H      -50.134      72.076     260.687
  H      -53.082      71.820     266.214
  H      -49.666      66.861     257.522
  H      -50.571      67.379     263.882
  H      -48.422      69.155     261.464
  H      -51.025      70.008     260.752
  H      -51.755      70.084     263.073
  H      -49.077      71.485     263.642
  H      -49.305      70.286     265.835
  H      -51.319      63.124     259.428
  H      -51.494      63.464     261.137
  H      -50.504      71.575     265.585
  P      -52.780      72.330     261.895
  C      -54.537      71.980     263.777
  O      -53.799      72.898     262.993
  O      -53.289      70.838     261.625
  O      -52.650      73.124     260.638
  H      -53.875      70.814     260.846
  H      -54.927      72.503     264.654
  H      -53.907      71.153     264.115
  H      -55.377      71.589     263.197
  H      -50.622      70.148     269.755
  H      -52.094      70.955     269.271
  H      -50.591      71.317     268.457

 3  4  5  6  7  8  9  10  11  12  22  25  29  30  31  32 0
 6-311+G(2d,p)
 ****
 33  36  37 0
 6-311+G(2d,p)
 ****
 1  2  13  14  15  16  17  18  19  20  21  23  24  26 0
 3-21G
 ****
 27  28  34  35  38  39  40  41  42  43  44  45  46  47  48 0
 3-21G
 ****


