%nproc=1
%NoSave
%Mem=1900MB
#P OB98/GEN NMR

erre ene a

0 1
  C     -190.774    -894.960     357.850
  O     -191.356    -896.250     357.769
  P     -192.459    -896.640     358.874
  C     -192.326    -897.170     361.418
  O     -191.638    -897.050     360.188
  C     -191.364    -897.110     362.597
  O     -190.494    -895.990     362.477
  C     -192.046    -897.000     363.964
  O     -192.568    -898.250     364.358
  C     -190.877    -896.500     364.817
  O     -190.094    -897.620     365.316
  C     -190.059    -895.660     363.829
  N     -190.174    -894.230     364.090
  C     -189.784    -893.820     365.376
  O     -189.423    -894.660     366.207
  N     -189.882    -892.490     365.701
  C     -190.324    -891.640     364.816
  N     -190.393    -890.340     365.175
  C     -190.749    -892.020     363.445
  C     -190.656    -893.330     363.159
  O     -193.031    -898.030     358.340
  O     -193.523    -895.610     359.082
  H     -190.739    -898.260     365.634
  H     -193.950    -898.160     358.652
  H     -191.108    -891.290     362.755
  H     -190.942    -893.710     362.194
  H     -188.993    -895.930     363.868
  H     -191.234    -895.960     365.687
  H     -192.828    -896.250     363.926
  H     -190.730    -898.040     362.550
  H     -190.106    -890.100     366.111
  H     -192.876    -898.110     361.442
  H     -190.702    -889.580     364.558
  H     -193.060    -896.340     361.491
  P     -193.495    -898.280     365.665
  C     -193.299    -896.920     367.818
  O     -192.596    -897.600     366.810
  O     -193.442    -899.830     366.070
  O     -194.889    -897.780     365.523
  H     -194.051    -900.000     366.819
  H     -192.603    -896.640     368.604
  H     -194.079    -897.550     368.255
  H     -193.741    -896.000     367.416
  H     -190.064    -894.839     357.059
  H     -190.280    -894.850     358.793
  H     -191.539    -894.217     357.759

 3  4  5  6  7  8  9  10  11  12  13  21  23  27  28  29  30  32 0
 6-311+G(2d,p)
 ****
 34  35 0
 6-311+G(2d,p)
 ****
 1  2  14  15  16  17  18  19  20  22  24  25  26 0
 3-21G
 ****
 31  33  36  37  38  39  40  41  42  43  44  45  46 0
 3-21G
 ****


