%nproc=1
%NoSave
%Mem=1900MB
#P OB98/GEN NMR

erre ene a

0 1
  C     -690.322    -354.257     270.461
  O     -689.130    -353.542     270.718
  H     -690.538    -354.260     269.384
  H     -690.198    -355.292     270.795
  H     -691.161    -353.799     271.006
  P     -689.078    -352.028     270.194
  C     -688.411    -350.912     267.948
  O     -688.793    -352.107     268.611
  C     -687.206    -351.156     267.065
  O     -687.391    -352.360     266.274
  C     -686.905    -350.063     266.051
  O     -686.247    -348.952     266.647
  C     -685.999    -350.794     265.089
  O     -684.663    -350.840     265.613
  C     -686.596    -352.212     265.069
  N     -687.216    -355.024     260.812
  C     -686.237    -355.003     261.752
  N     -686.134    -354.222     262.845
  C     -687.189    -353.402     262.944
  C     -688.259    -353.281     262.060
  C     -688.244    -354.153     260.945
  N     -689.235    -354.138     259.985
  N     -689.154    -352.339     262.485
  C     -688.646    -351.876     263.613
  N     -687.443    -352.472     263.920
  O     -687.701    -351.472     270.797
  O     -690.237    -351.174     270.593
  H     -684.077    -351.140     264.886
  H     -687.811    -350.532     271.024
  H     -685.439    -355.713     261.599
  H     -689.099    -351.107     264.225
  H     -685.819    -352.983     265.106
  H     -685.939    -350.336     264.102
  H     -687.824    -349.755     265.522
  H     -686.325    -351.325     267.714
  H     -688.159    -350.142     268.690
  H     -689.272    -354.907     259.328
  H     -690.011    -353.491     260.099
  H     -689.261    -350.554     267.343
  P     -686.488    -347.499     265.985
  C     -686.257    -346.590     263.567
  O     -685.928    -347.630     264.476
  O     -685.393    -346.589     266.707
  O     -687.877    -346.952     266.135
  H     -685.683    -345.658     266.695
  H     -685.825    -346.802     262.611
  H     -685.873    -345.661     263.934
  H     -687.321    -346.523     263.471

 6  7  8  9  10  11  12  13  14  15  25  28  32  33  34  35 0
 6-311+G(2d,p)
 ****
 36  39  40 0
 6-311+G(2d,p)
 ****
 1  2  3  4  5  16  17  18  19  20  21  22  23  24 0
 3-21G
 ****
 26  27  29  30  31  37  38  41  42  43  44  45  46  47  48 0
 3-21G
 ****


