%nproc=1
%NoSave
%Mem=1900MB
#P OB98/GEN NMR

erre ene a

0 1
  C      -25.041    1066.194    -143.629
  O      -25.441    1067.424    -143.036
  P      -26.449    1068.347    -143.885
  C      -28.583    1066.863    -143.873
  O      -27.501    1067.386    -144.620
  C      -29.883    1067.004    -144.666
  O      -29.864    1066.205    -145.865
  C      -31.108    1066.546    -143.891
  O      -31.487    1067.491    -142.902
  C      -32.122    1066.379    -145.020
  O      -32.655    1067.645    -145.410
  C      -31.242    1065.827    -146.159
  N      -34.244    1061.909    -147.513
  C      -34.456    1063.239    -147.482
  N      -33.607    1064.215    -147.097
  C      -32.423    1063.699    -146.747
  C      -32.054    1062.355    -146.728
  C      -33.036    1061.438    -147.116
  N      -32.819    1060.076    -147.142
  N      -30.756    1062.219    -146.285
  C      -30.348    1063.447    -146.018
  N      -31.315    1064.385    -146.292
  O      -25.535    1068.910    -145.061
  O      -27.061    1069.448    -143.073
  H      -33.100    1068.042    -144.642
  H      -25.360    1069.860    -144.923
  H      -35.452    1063.575    -147.798
  H      -29.380    1063.701    -145.645
  H      -31.497    1066.252    -147.132
  H      -32.966    1065.737    -144.746
  H      -30.925    1065.573    -143.409
  H      -30.000    1068.063    -144.959
  H      -28.668    1067.379    -142.915
  H      -33.606    1059.466    -147.369
  H      -31.950    1059.713    -146.771
  H      -28.383    1065.809    -143.639
  P      -31.212    1067.124    -141.377
  C      -29.693    1069.178    -141.057
  O      -29.756    1067.766    -141.078
  O      -30.897    1065.562    -141.451
  O      -32.296    1067.511    -140.418
  H      -30.281    1065.358    -142.192
  H      -28.667    1069.477    -140.813
  H      -30.373    1069.594    -140.303
  H      -29.964    1069.582    -142.036
  H      -24.376    1065.679    -142.968
  H      -24.542    1066.390    -144.555
  H      -25.904    1065.588    -143.810

 3  4  5  6  7  8  9  10  11  12  22  25  29  30  31  32 0
 6-311+G(2d,p)
 ****
 33  36  37 0
 6-311+G(2d,p)
 ****
 1  2  13  14  15  16  17  18  19  20  21  23  24  26 0
 3-21G
 ****
 27  28  34  35  38  39  40  41  42  43  44  45  46  47  48 0
 3-21G
 ****


