%nproc=1
%NoSave
%Mem=1900MB
#P OB98/GEN NMR

erre ene a

0 1
  C      513.202    -248.488     191.046
  O      512.137    -248.618     191.966
  H      513.173    -247.487     190.610
  H      513.077    -249.223     190.245
  H      514.166    -248.634     191.537
  P      512.211    -249.836     193.008
  C      512.970    -250.026     195.486
  O      513.087    -249.325     194.255
  C      513.622    -249.229     196.617
  O      515.054    -249.118     196.340
  C      513.064    -247.807     196.789
  O      513.036    -247.483     198.184
  C      514.127    -246.950     196.122
  O      514.118    -245.602     196.596
  C      515.391    -247.724     196.490
  N      518.345    -243.844     195.284
  C      517.424    -243.992     196.310
  N      517.213    -242.918     197.105
  N      516.767    -245.096     196.535
  C      517.091    -246.098     195.682
  C      517.975    -246.078     194.629
  C      518.685    -244.841     194.375
  O      519.495    -244.644     193.478
  N      517.971    -247.283     193.958
  C      517.074    -248.018     194.596
  N      516.509    -247.341     195.644
  O      513.177    -250.876     192.265
  O      510.899    -250.454     193.362
  H      513.247    -245.216     196.390
  H      512.646    -251.525     191.769
  H      518.810    -242.963     195.145
  H      516.782    -249.025     194.329
  H      515.699    -247.555     197.531
  H      513.977    -246.934     195.035
  H      517.702    -242.041     197.011
  H      512.068    -247.660     196.351
  H      516.573    -243.023     197.882
  H      513.517    -249.800     197.547
  H      513.468    -250.998     195.399
  H      511.907    -250.196     195.700
  P      511.658    -247.675     198.981
  C      510.427    -249.751     199.962
  O      511.666    -249.117     199.680
  O      510.588    -247.850     197.799
  O      511.312    -246.532     199.869
  H      509.736    -247.453     198.065
  H      510.608    -250.698     200.425
  H      509.886    -249.897     199.051
  H      509.853    -249.135     200.623

 6  7  8  9  10  11  12  13  14  15  26  29  33  34 0
 6-311+G(2d,p)
 ****
 36  38  39  40  41 0
 6-311+G(2d,p)
 ****
 1  2  3  4  5  16  17  18  19  20  21  22  23  24  25 0
 3-21G
 ****
 27  28  30  31  32  35  37  42  43  44  45  46  47 0
 3-21G
 ****
 48  49 0
 3-21G
 ****


