%nproc=1
%NoSave
%Mem=1900MB
#P OB98/GEN NMR

erre ene a

0 1
  C      198.936    -550.378    -233.998
  O      200.275    -549.923    -233.766
  P      200.579    -548.357    -233.938
  C      200.919    -548.431    -236.522
  O      201.487    -548.155    -235.245
  C      201.949    -548.190    -237.624
  O      202.371    -546.817    -237.677
  C      203.225    -548.996    -237.458
  O      203.076    -550.324    -237.937
  C      204.187    -548.222    -238.351
  O      203.972    -548.584    -239.728
  C      203.750    -546.776    -238.103
  N      207.557    -543.440    -237.295
  C      207.028    -543.949    -238.431
  N      206.030    -544.843    -238.565
  C      205.554    -545.209    -237.366
  C      205.995    -544.783    -236.125
  C      207.046    -543.853    -236.114
  N      207.577    -543.337    -234.950
  N      205.271    -545.384    -235.113
  C      204.401    -546.153    -235.736
  N      204.540    -546.089    -237.098
  O      201.594    -548.054    -232.738
  O      199.361    -547.495    -233.860
  H      204.477    -547.955    -240.270
  H      201.440    -547.151    -232.399
  H      207.467    -543.584    -239.360
  H      203.658    -546.766    -235.250
  H      203.795    -546.167    -239.018
  H      205.236    -548.433    -238.125
  H      203.576    -548.974    -236.416
  H      201.481    -548.441    -238.589
  H      200.040    -547.804    -236.684
  H      208.312    -542.652    -235.023
  H      207.185    -543.623    -234.062
  H      200.560    -549.467    -236.533
  P      202.814    -551.477    -236.849
  C      205.326    -551.675    -236.214
  O      204.185    -552.304    -236.759
  O      201.807    -552.465    -237.601
  O      202.260    -550.980    -235.557
  H      201.220    -552.904    -236.954
  H      206.057    -552.445    -235.949
  H      205.075    -551.107    -235.314
  H      205.772    -551.012    -236.962
  H      198.888    -551.436    -233.846
  H      198.650    -550.148    -235.003
  H      198.270    -549.889    -233.318

 3  4  5  6  7  8  9  10  11  12  22  25  29  30  31  32 0
 6-311+G(2d,p)
 ****
 33  36  37 0
 6-311+G(2d,p)
 ****
 1  2  13  14  15  16  17  18  19  20  21  23  24  26 0
 3-21G
 ****
 27  28  34  35  38  39  40  41  42  43  44  45  46  47  48 0
 3-21G
 ****


