%nproc=1
%NoSave
%Mem=1900MB
#P OB98/GEN NMR

erre ene a

0 1
  C     -740.631      93.345    -209.565
  O     -741.177      92.558    -208.527
  P     -740.912      90.975    -208.567
  C     -740.729      91.186    -205.982
  O     -741.214      90.418    -207.092
  C     -741.292      90.658    -204.672
  O     -742.705      90.993    -204.586
  C     -741.164      89.140    -204.491
  O     -740.733      88.855    -203.141
  C     -742.595      88.637    -204.622
  O     -742.805      87.407    -203.945
  C     -743.363      89.830    -204.043
  N     -747.948      90.707    -202.097
  C     -746.697      91.043    -201.597
  N     -746.667      91.647    -200.391
  N     -745.586      90.801    -202.230
  C     -745.760      90.227    -203.441
  C     -746.942      89.859    -204.044
  C     -748.166      90.079    -203.301
  O     -749.296      89.716    -203.644
  N     -746.724      89.326    -205.298
  C     -745.415      89.356    -205.452
  N     -744.784      89.852    -204.333
  O     -739.307      90.891    -208.677
  O     -741.564      90.235    -209.687
  H     -742.495      86.695    -204.534
  H     -739.060      90.356    -209.469
  H     -748.777      90.902    -201.554
  H     -744.872      89.012    -206.320
  H     -743.248      89.858    -202.954
  H     -742.821      88.495    -205.683
  H     -747.496      91.882    -199.855
  H     -740.483      88.655    -205.204
  H     -745.767      91.919    -200.008
  H     -740.796      91.188    -203.838
  H     -741.032      92.230    -206.119
  H     -739.633      91.136    -205.981
  P     -739.604      87.714    -202.986
  C     -738.541      88.937    -200.947
  O     -739.151      87.762    -201.454
  O     -738.348      88.333    -203.791
  O     -740.013      86.368    -203.515
  H     -737.758      87.616    -204.085
  H     -738.588      89.776    -201.669
  H     -737.487      88.734    -200.735
  H     -739.041      89.224    -200.026
  H     -740.888      94.372    -209.407
  H     -741.026      93.019    -210.505
  H     -739.566      93.240    -209.570

 3  4  5  6  7  8  9  10  11  12  23  26  30  31  33  0
 6-311+G(2d,p)
 ****
 35  36  37  38 0
 6-311+G(2d,p)
 ****
 1  2  13  14  15  16  17  18  19  20  21  22  24  25  27  28  29 0
 3-21G
 ****
 32  34  39  40  41  42  43  44  45  46  47  48  49 0
 3-21G
 ****


