%nproc=1
%NoSave
%Mem=1900MB
#P OB98/GEN NMR

erre ene a

0 1
  C       12.073    -169.497     -39.009
  O       12.889    -168.836     -38.061
  P       13.557    -169.642     -36.851
  C       11.345    -169.625     -35.560
  O       12.728    -169.295     -35.521
  C       10.746    -169.675     -34.156
  O        9.321    -169.951     -34.258
  C       11.353    -170.745     -33.236
  O       11.335    -170.208     -31.910
  C       10.353    -171.883     -33.339
  O       10.431    -172.791     -32.246
  C        9.051    -171.095     -33.418
  N        5.276    -174.384     -32.385
  C        6.227    -173.834     -31.602
  N        7.215    -172.987     -31.957
  C        7.157    -172.712     -33.271
  C        6.262    -173.220     -34.200
  C        5.269    -174.085     -33.707
  N        4.269    -174.627     -34.485
  N        6.562    -172.747     -35.464
  C        7.614    -171.971     -35.297
  N        7.967    -171.870     -33.980
  O       15.036    -169.486     -36.722
  O       13.161    -171.166     -37.138
  H        9.878    -173.569     -32.452
  H       13.941    -171.656     -37.464
  H        6.191    -174.107     -30.552
  H        8.153    -171.465     -36.085
  H        8.731    -170.726     -32.437
  H       10.534    -172.449     -34.262
  H       12.367    -171.048     -33.516
  H       10.849    -168.681     -33.704
  H       11.246    -170.608     -36.030
  H        3.534    -175.123     -34.006
  H        4.083    -174.219     -35.399
  H       10.807    -168.894     -36.174
  P       12.499    -170.589     -30.875
  C       10.799    -172.060     -29.650
  O       11.774    -171.041     -29.521
  O       13.574    -169.566     -30.717
  O       13.074    -171.969     -31.456
  H       13.956    -172.143     -31.069
  H        9.859    -171.622     -29.999
  H       10.636    -172.523     -28.673
  H       11.124    -172.829     -30.358
  H       11.724    -168.791     -39.733
  H       11.236    -169.941     -38.511
  H       12.642    -170.259     -39.499

 3  4  5  6  7  8  9  10  11  12  22  25  29  30  31  32 0
 6-311+G(2d,p)
 ****
 33  36  37 0
 6-311+G(2d,p)
 ****
 1  2  13  14  15  16  17  18  19  20  21  23  24  26 0
 3-21G
 ****
 27  28  34  35  38  39  40  41  42  43  44  45  46  47  48 0
 3-21G
 ****


