%nproc=1
%NoSave
%Mem=1900MB
#P OB98/GEN NMR

erre ene a

0 1
  C     -810.400    -836.251     668.232
  O     -809.809    -837.203     669.103
  P     -810.162    -838.749     668.832
  C     -807.990    -839.003     667.396
  O     -808.777    -839.482     668.477
  C     -806.773    -839.913     667.207
  O     -805.838    -839.734     668.292
  C     -807.101    -841.402     667.161
  O     -807.542    -841.779     665.879
  C     -805.756    -842.019     667.556
  O     -804.869    -842.083     666.428
  C     -805.249    -841.020     668.607
  N     -803.606    -840.970     673.411
  C     -802.951    -840.661     672.234
  N     -801.681    -840.231     672.353
  N     -803.476    -840.748     671.035
  C     -804.751    -841.215     671.068
  C     -805.519    -841.573     672.153
  C     -804.929    -841.414     673.468
  O     -805.509    -841.573     674.527
  N     -806.750    -842.016     671.779
  C     -806.757    -841.887     670.465
  N     -805.574    -841.399     669.986
  O     -810.946    -838.713     667.431
  O     -810.961    -839.427     669.906
  H     -804.059    -842.566     666.672
  H     -811.916    -838.734     667.570
  H     -803.156    -840.857     674.299
  H     -807.595    -842.133     669.819
  H     -804.152    -840.904     668.566
  H     -805.865    -843.049     667.922
  H     -801.191    -840.144     673.246
  H     -807.854    -841.652     667.923
  H     -801.160    -839.995     671.520
  H     -806.259    -839.609     666.282
  H     -807.643    -837.986     667.618
  H     -808.601    -838.991     666.487
  P     -808.935    -842.560     665.766
  C     -810.317    -840.477     665.041
  O     -809.853    -841.777     664.709
  O     -809.640    -842.250     667.182
  O     -808.805    -844.030     665.540
  H     -810.138    -843.058     667.476
  H     -810.434    -839.921     664.121
  H     -809.623    -839.948     665.702
  H     -811.293    -840.555     665.537
  H     -810.089    -835.267     668.515
  H     -811.466    -836.321     668.297
  H     -810.091    -836.447     667.227

 3  4  5  6  7  8  9  10  11  12  23  26  30  31 0
 6-311+G(2d,p)
 ****
 33  35  36  37  38 0
 6-311+G(2d,p)
 ****
 1  2  13  14  15  16  17  18  19  20  21  22  24  25 0
 3-21G
 ****
 27  28  29  32  34  39  40  41  42  43  44  45  46  47  48  49 0
 3-21G
 ****


