%nproc=1
%NoSave
%Mem=1900MB
#P OB98/GEN NMR

erre ene a

0 1
  C     -320.238     709.453    -746.267
  O     -320.086     708.065    -746.044
  H     -320.821     709.600    -747.182
  H     -319.260     709.923    -746.399
  H     -320.769     709.917    -745.432
  P     -319.278     707.639    -744.728
  C     -316.852     708.059    -743.915
  O     -317.805     708.235    -744.963
  C     -315.636     708.954    -744.155
  O     -314.798     708.419    -745.194
  C     -315.973     710.374    -744.596
  O     -316.339     711.182    -743.482
  C     -314.652     710.813    -745.204
  O     -313.743     711.204    -744.159
  C     -314.154     709.523    -745.881
  N     -312.261     710.112    -750.622
  C     -311.775     710.467    -749.410
  N     -312.346     710.315    -748.194
  C     -313.559     709.730    -748.301
  C     -314.185     709.324    -749.480
  C     -313.482     709.520    -750.674
  N     -313.967     709.149    -751.911
  N     -315.416     708.769    -749.203
  C     -315.510     708.800    -747.887
  N     -314.431     709.404    -747.303
  O     -319.356     706.195    -744.352
  O     -319.894     708.660    -743.646
  H     -314.090     712.022    -743.749
  H     -320.037     709.531    -744.048
  H     -310.787     710.924    -749.418
  H     -316.337     708.378    -747.310
  H     -313.062     709.393    -745.760
  H     -314.762     711.675    -745.865
  H     -316.747     710.376    -745.373
  H     -315.043     708.979    -743.227
  H     -316.535     707.013    -743.861
  H     -313.484     709.485    -752.724
  H     -314.917     708.828    -751.954
  H     -317.341     708.326    -742.975
  P     -316.441     712.780    -743.629
  C     -314.796     714.733    -743.929
  O     -314.933     713.319    -743.770
  O     -317.244     713.454    -742.564
  O     -317.057     713.013    -745.077
  H     -317.686     713.774    -745.066
  H     -313.759     714.984    -744.013
  H     -315.215     715.230    -743.079
  H     -315.311     715.044    -744.814

 6  7  8  9  10  11  12  13  14  15  25  28  32  33  34  35 0
 6-311+G(2d,p)
 ****
 36  39  40 0
 6-311+G(2d,p)
 ****
 1  2  3  4  5  16  17  18  19  20  21  22  23  24 0
 3-21G
 ****
 26  27  29  30  31  37  38  41  42  43  44  45  46  47 0
 3-21G
 ****
 48 0
 3-21G
 ****


