%nproc=1
%NoSave
%Mem=1900MB
#P OB98/GEN NMR

erre ene a

0 1
  C      120.015     309.673     484.439
  O      120.244     310.881     485.129
  H      120.977     309.197     484.226
  H      119.508     309.881     483.489
  H      119.407     308.981     485.031
  P      119.042     311.541     485.950
  C      116.615     311.962     485.170
  O      117.998     312.164     484.900
  C      115.727     312.723     484.183
  O      115.336     311.842     483.100
  C      114.437     313.225     484.827
  O      114.552     314.500     485.453
  C      113.490     313.294     483.628
  O      113.582     314.559     482.953
  C      113.994     312.164     482.716
  N      110.499     309.244     480.392
  C      110.956     310.496     480.033
  N      110.385     311.045     478.942
  N      111.875     311.144     480.703
  C      112.285     310.508     481.829
  C      111.890     309.274     482.290
  C      110.922     308.531     481.515
  O      110.496     307.411     481.778
  N      112.490     308.970     483.497
  C      113.177     310.060     483.789
  N      113.150     310.981     482.769
  O      119.706     312.850     486.597
  O      118.443     310.676     487.020
  H      114.510     314.680     482.659
  H      119.282     313.044     487.452
  H      109.810     308.780     479.831
  H      113.753     310.210     484.700
  H      114.031     312.480     481.667
  H      112.449     313.175     483.945
  H      109.608     310.627     478.443
  H      114.038     312.492     485.536
  H      110.551     312.033     478.756
  H      116.305     313.540     483.734
  H      116.444     312.318     486.184
  H      116.380     310.894     485.154
  P      113.741     314.825     486.789
  C      111.356     314.146     487.654
  O      112.218     314.421     486.568
  O      113.698     316.435     486.800
  O      114.327     314.272     488.049
  H      114.393     316.785     487.389
  H      110.384     313.897     487.283
  H      111.288     315.009     488.283
  H      111.744     313.324     488.218

 6  7  8  9  10  11  12  13  14  15  26  29  33  34 0
 6-311+G(2d,p)
 ****
 36  38  39  40  41 0
 6-311+G(2d,p)
 ****
 1  2  3  4  5  16  17  18  19  20  21  22  23  24  25 0
 3-21G
 ****
 27  28  30  31  32  35  37  42  43  44  45  46  47 0
 3-21G
 ****
 48  49 0
 3-21G
 ****


