%nproc=1
%NoSave
%Mem=1900MB
#P OB98/GEN NMR

erre ene a

0 1
  C      -81.756     405.834      30.204
  O      -83.151     405.816      30.449
  H      -81.508     405.004      29.537
  H      -81.198     405.715      31.138
  H      -81.468     406.771      29.716
  P      -83.768     406.917      31.439
  C      -84.751     408.169      29.400
  O      -83.939     408.256      30.565
  C      -85.795     409.287      29.396
  O      -85.152     410.575      29.347
  C      -86.759     409.239      28.211
  O      -87.796     408.299      28.446
  C      -87.260     410.675      28.202
  O      -88.231     410.854      29.262
  C      -85.979     411.458      28.531
  N      -85.703     414.700      24.627
  C      -86.728     414.484      25.529
  N      -87.851     415.213      25.347
  N      -86.664     413.622      26.516
  C      -85.510     412.913      26.532
  C      -84.429     413.023      25.680
  C      -84.487     414.028      24.639
  O      -83.586     414.265      23.832
  N      -83.474     412.068      25.954
  C      -83.956     411.424      26.998
  N      -85.194     411.889      27.384
  O      -83.039     407.123      32.732
  O      -85.280     406.437      31.671
  H      -87.797     410.586      30.095
  H      -85.351     405.867      32.459
  H      -85.811     415.371      23.887
  H      -83.455     410.611      27.517
  H      -86.185     412.358      29.127
  H      -87.753     410.948      27.266
  H      -88.019     415.781      24.524
  H      -86.231     409.043      27.271
  H      -88.636     415.026      25.966
  H      -86.342     409.236      30.351
  H      -85.237     407.186      29.408
  H      -84.134     408.238      28.499
  P      -88.713     407.740      27.248
  C      -86.665     406.549      26.189
  O      -87.699     407.502      26.016
  O      -89.900     408.576      26.923
  O      -89.058     406.240      27.680
  H      -89.848     406.189      28.281
  H      -86.075     406.497      25.298
  H      -87.094     405.589      26.389
  H      -86.045     406.841      27.011

 6  7  8  9  10  11  12  13  14  15  26  29  33  34 0
 6-311+G(2d,p)
 ****
 36  38  39  40  41 0
 6-311+G(2d,p)
 ****
 1  2  3  4  5  16  17  18  19  20  21  22  23  24  25 0
 3-21G
 ****
 27  28  30  31  32  35  37  42  43  44  45  46  47 0
 3-21G
 ****
 48  49 0
 3-21G
 ****


