%nproc=1
%NoSave
%Mem=1900MB
#P OB98/GEN NMR

erre ene a

0 1
  C      182.080       5.852    -126.291
  O      182.135       5.418    -127.634
  H      182.036       4.992    -125.618
  H      182.985       6.425    -126.069
  H      181.209       6.493    -126.135
  P      180.889       4.560    -128.170
  C      179.453       6.361    -129.374
  O      179.645       5.574    -128.205
  C      178.956       7.747    -128.982
  O      179.928       8.405    -128.139
  C      178.728       8.688    -130.159
  O      177.482       8.462    -130.793
  C      178.750      10.031    -129.450
  O      177.497      10.243    -128.774
  C      179.878       9.828    -128.431
  N      183.791      13.024    -127.623
  C      182.620      12.850    -126.975
  N      181.629      11.980    -127.255
  C      181.937      11.239    -128.331
  C      183.088      11.309    -129.098
  C      184.052      12.251    -128.702
  N      185.241      12.442    -129.371
  N      183.030      10.411    -130.147
  C      181.879       9.789    -129.991
  N      181.178      10.261    -128.914
  O      180.537       3.598    -126.940
  O      181.117       3.807    -129.438
  H      176.807      10.264    -129.464
  H      180.026       2.828    -127.252
  H      182.458      13.497    -126.117
  H      181.511       8.995    -130.628
  H      179.691      10.352    -127.486
  H      178.893      10.872    -130.131
  H      179.558       8.647    -130.876
  H      178.036       7.625    -128.396
  H      178.709       5.877    -130.013
  H      185.773      13.261    -129.119
  H      185.373      11.977    -130.257
  H      180.399       6.433    -129.918
  P      177.509       8.014    -132.334
  C      175.919       5.960    -132.211
  O      177.258       6.432    -132.335
  O      179.053       8.149    -132.724
  O      176.623       8.813    -133.232
  H      179.157       8.310    -133.682
  H      175.915       4.890    -132.228
  H      175.333       6.332    -133.025
  H      175.504       6.304    -131.287

 6  7  8  9  10  11  12  13  14  15  25  28  32  33  34  35 0
 6-311+G(2d,p)
 ****
 36  39  40 0
 6-311+G(2d,p)
 ****
 1  2  3  4  5  16  17  18  19  20  21  22  23  24 0
 3-21G
 ****
 26  27  29  30  31  37  38  41  42  43  44  45  46  47 0
 3-21G
 ****
 48 0
 3-21G
 ****


