%nproc=1
%NoSave
%Mem=1900MB
#P OB98/GEN NMR

erre ene a

0 1
  C      517.538      74.673    -162.291
  O      518.906      74.903    -162.558
  H      516.979      75.579    -162.526
  H      517.396      74.434    -161.235
  H      517.164      73.855    -162.915
  P      519.922      73.679    -162.305
  C      520.756      73.534    -164.767
  O      521.072      73.854    -163.415
  C      522.037      73.411    -165.597
  O      522.578      74.733    -165.833
  C      523.125      72.569    -164.923
  O      523.732      71.714    -165.896
  C      524.128      73.592    -164.412
  O      525.434      73.053    -164.295
  C      523.964      74.724    -165.438
  N      524.365      76.026    -164.880
  C      525.617      76.509    -165.270
  O      526.337      75.857    -166.031
  N      526.051      77.701    -164.745
  C      525.332      78.325    -163.859
  N      525.830      79.490    -163.357
  C      524.026      77.818    -163.383
  C      523.610      76.676    -163.933
  O      519.087      72.413    -162.816
  O      520.423      73.547    -160.904
  H      525.782      72.891    -165.198
  H      519.505      71.564    -162.530
  H      523.467      78.362    -162.636
  H      522.659      76.232    -163.645
  H      524.572      74.528    -166.328
  H      523.812      73.940    -163.419
  H      522.745      71.964    -164.105
  H      521.776      73.002    -166.580
  H      526.728      79.792    -163.698
  H      520.119      74.324    -165.180
  H      525.364      80.037    -162.650
  H      520.218      72.584    -164.795
  P      523.279      70.170    -165.846
  C      522.730      70.090    -168.376
  O      523.498      69.547    -167.312
  O      521.688      70.244    -165.691
  O      523.924      69.391    -164.733
  H      521.427      70.120    -164.760
  H      522.976      69.585    -169.287
  H      522.947      71.133    -168.476
  H      521.689      69.961    -168.166

 6  7  8  9  10  11  12  13  14  15  16  26  30  31  32  33  35 0
 6-311+G(2d,p)
 ****
 37  38 0
 6-311+G(2d,p)
 ****
 1  2  3  4  5  17  18  19  20  21  22  23  24  25 0
 3-21G
 ****
 27  28  29  34  36  39  40  41  42  43  44  45  46 0
 3-21G
 ****


