%nproc=1
%NoSave
%Mem=1900MB
#P OB98/GEN NMR

erre ene a

0 1
  C      129.991    -412.612    -224.077
  O      129.935    -411.490    -223.219
  H      129.349    -413.397    -223.671
  H      131.014    -412.995    -224.145
  H      129.627    -412.349    -225.077
  P      130.845    -410.216    -223.556
  C      133.376    -409.723    -223.697
  O      132.371    -410.669    -223.335
  C      134.698    -410.071    -223.000
  O      134.504    -409.895    -221.570
  C      135.133    -411.524    -223.256
  O      136.470    -411.628    -223.748
  C      134.811    -412.222    -221.939
  O      135.597    -413.362    -221.671
  C      134.949    -411.094    -220.907
  N      134.181    -411.315    -219.685
  C      134.816    -412.000    -218.647
  O      135.979    -412.403    -218.667
  N      134.058    -412.199    -217.521
  C      132.761    -411.818    -217.343
  O      132.137    -412.020    -216.309
  C      132.138    -411.125    -218.481
  C      132.864    -410.906    -219.582
  O      130.460    -408.945    -222.870
  O      130.742    -410.078    -225.150
  H      135.294    -413.743    -220.823
  H      130.128    -409.354    -225.376
  H      134.512    -412.683    -216.760
  H      131.108    -410.813    -218.380
  H      132.433    -410.402    -220.441
  H      135.993    -410.957    -220.621
  H      133.770    -412.553    -221.972
  H      134.534    -411.977    -224.056
  H      135.463    -409.350    -223.317
  H      133.032    -408.732    -223.388
  H      133.516    -409.734    -224.785
  P      136.859    -412.211    -225.181
  C      136.832    -414.586    -226.312
  O      136.445    -413.760    -225.218
  O      138.232    -411.876    -225.665
  O      135.804    -411.511    -226.178
  H      136.264    -411.384    -227.034
  H      136.465    -415.579    -226.156
  H      137.899    -414.607    -226.383
  H      136.422    -414.192    -227.219

 6  7  8  9  10  11  12  13  14  15  16  26  31  32  33  34  35 0
 6-311+G(2d,p)
 ****
 36  37 0
 6-311+G(2d,p)
 ****
 1  2  3  4  5  17  18  19  20  21  22  23  24  25 0
 3-21G
 ****
 27  28  29  30  38  39  40  41  42  43  44  45 0
 3-21G
 ****


