%nproc=1
%NoSave
%Mem=1900MB
#P OB98/GEN NMR

erre ene a

0 1
  C     -378.914      96.432     930.400
  O     -379.406      97.007     931.588
  H     -378.333      95.539     930.654
  H     -378.259      97.132     929.871
  H     -379.739      96.128     929.748
  P     -380.244      98.372     931.491
  C     -382.129      97.316     932.910
  O     -381.785      97.985     931.698
  C     -383.645      97.106     932.993
  O     -384.251      98.393     933.291
  C     -384.241      96.584     931.677
  O     -385.031      95.407     931.857
  C     -384.907      97.817     931.088
  O     -385.983      97.532     930.211
  C     -385.288      98.644     932.321
  N     -385.417     100.070     932.064
  C     -386.515     100.725     932.623
  O     -387.376     100.194     933.327
  N     -386.607     102.067     932.353
  C     -385.736     102.794     931.583
  O     -385.876     103.995     931.375
  C     -384.617     102.039     930.995
  C     -384.508     100.729     931.264
  O     -379.969      99.213     930.293
  O     -379.881      99.145     932.849
  H     -385.603      97.080     929.424
  H     -379.264      99.879     932.651
  H     -387.381     102.552     932.766
  H     -383.916     102.578     930.379
  H     -383.694     100.146     930.849
  H     -386.237      98.292     932.740
  H     -384.163      98.371     930.500
  H     -383.444      96.244     931.003
  H     -383.859      96.430     933.832
  H     -381.781      97.935     933.746
  H     -381.618      96.343     932.947
  P     -384.838      94.037     931.059
  C     -384.853      92.664     933.300
  O     -384.223      92.954     932.057
  O     -384.196      94.152     929.706
  O     -386.345      93.513     930.832
  H     -386.350      93.032     929.983
  H     -384.290      91.916     933.819
  H     -385.845      92.304     933.122
  H     -384.897      93.553     933.893

 6  7  8  9  10  11  12  13  14  15  16  26  31  32  33  34  35 0
 6-311+G(2d,p)
 ****
 36  37 0
 6-311+G(2d,p)
 ****
 1  2  3  4  5  17  18  19  20  21  22  23  24  25 0
 3-21G
 ****
 27  28  29  30  38  39  40  41  42  43  44  45 0
 3-21G
 ****


