%nproc=1
%NoSave
%Mem=1900MB
#P OB98/GEN NMR

erre ene a

0 1
  C      -22.455     321.684     105.951
  O      -23.743     321.723     106.570
  P      -24.628     320.390     106.714
  C      -26.233     318.981     105.301
  O      -25.531     320.213     105.394
  C      -27.446     319.034     104.363
  O      -28.515     319.823     104.942
  C      -27.163     319.613     102.976
  O      -28.029     318.916     102.073
  C      -27.599     321.061     103.132
  O      -27.830     321.704     101.885
  C      -28.826     320.897     104.037
  N      -29.161     322.127     104.747
  C      -29.757     323.146     103.998
  O      -29.929     323.012     102.788
  N      -30.103     324.319     104.633
  C      -29.787     324.491     105.881
  N      -30.130     325.679     106.445
  C      -29.081     323.473     106.687
  C      -28.811     322.328     106.063
  O      -25.379     320.270     108.000
  O      -23.552     319.204     106.582
  H      -28.298     322.546     102.054
  H      -23.857     318.434     107.100
  H      -28.816     323.674     107.716
  H      -28.299     321.514     106.569
  H      -29.703     320.590     103.447
  H      -26.814     321.625     103.654
  H      -26.118     319.518     102.668
  H      -27.830     318.009     104.266
  H      -30.595     326.360     105.852
  H      -26.568     318.691     106.307
  H      -29.834     325.961     107.372
  H      -25.538     318.201     104.962
  P      -27.623     317.512     101.418
  C      -26.187     316.746      99.439
  O      -26.827     317.847     100.068
  O      -28.753     316.547     101.253
  O      -26.485     316.921     102.380
  H      -26.389     315.963     102.217
  H      -25.865     317.046      98.438
  H      -26.874     315.896      99.351
  H      -25.309     316.448     100.021
  H      -22.029     322.666     105.952
  H      -22.554     321.339     104.943
  H      -21.818     321.018     106.495

 3  4  5  6  7  8  9  10  11  12  13  23  27  28  29  30  32 0
 6-311+G(2d,p)
 ****
 34  35 0
 6-311+G(2d,p)
 ****
 1  2  14  15  16  17  18  19  20  21  22  24  25  26 0
 3-21G
 ****
 31  33  36  37  38  39  40  41  42  43  44  45  46 0
 3-21G
 ****


