%nproc=1
%NoSave
%Mem=1900MB
#P OB98/GEN NMR

erre ene a

0 1
  C      766.103    -216.853     -61.338
  O      766.901    -216.780     -60.168
  P      767.226    -218.109     -59.338
  C      768.795    -216.765     -57.759
  O      767.699    -217.646     -57.877
  C      769.648    -217.110     -56.521
  O      768.842    -216.862     -55.345
  C      770.078    -218.569     -56.430
  O      771.173    -218.663     -55.511
  C      768.850    -219.224     -55.822
  O      769.146    -220.479     -55.225
  C      768.332    -218.126     -54.855
  N      766.860    -218.105     -54.804
  C      766.238    -219.173     -54.169
  O      766.858    -220.072     -53.600
  N      764.875    -219.228     -54.279
  C      764.110    -218.350     -54.991
  O      762.952    -218.579     -55.340
  C      764.785    -217.116     -55.437
  C      766.120    -217.065     -55.346
  O      768.575    -218.642     -60.027
  O      766.151    -219.142     -59.357
  H      768.298    -220.843     -54.888
  H      768.363    -219.323     -60.691
  H      764.436    -220.076     -53.947
  H      764.189    -216.332     -55.869
  H      766.655    -216.197     -55.712
  H      768.710    -218.283     -53.833
  H      768.114    -219.396     -56.620
  H      770.350    -219.023     -57.389
  H      770.515    -216.444     -56.485
  H      768.432    -215.734     -57.698
  H      769.426    -216.823     -58.649
  P      772.516    -219.378     -56.014
  C      773.375    -218.212     -53.898
  O      773.557    -219.283     -54.803
  O      773.031    -218.936     -57.345
  O      772.119    -220.934     -56.022
  H      772.743    -221.427     -56.577
  H      773.750    -218.521     -52.912
  H      772.326    -217.937     -53.806
  H      773.952    -217.350     -54.239
  H      765.993    -215.874     -61.756
  H      765.139    -217.245     -61.088
  H      766.575    -217.495     -62.052

 3  4  5  6  7  8  9  10  11  12  13  23  28  29  30  31  32 0
 6-311+G(2d,p)
 ****
 33  34 0
 6-311+G(2d,p)
 ****
 1  2  14  15  16  17  18  19  20  21  22  24  25  26  27 0
 3-21G
 ****
 35  36  37  38  39  40  41  42  43  44  45 0
 3-21G
 ****


