%nproc=1
%NoSave
%Mem=1900MB
#P OB98/GEN NMR

erre ene a

0 1
  C      -56.530      87.706      37.996
  O      -56.285      86.851      36.894
  P      -55.960      85.312      37.204
  C      -54.526      84.344      39.155
  O      -54.623      85.276      38.087
  C      -53.261      83.500      38.989
  O      -53.319      82.743      37.760
  C      -51.985      84.326      38.900
  O      -51.558      84.759      40.181
  C      -51.027      83.343      38.242
  O      -50.452      82.454      39.213
  C      -51.965      82.575      37.289
  N      -51.818      82.994      35.898
  C      -51.073      82.148      35.083
  O      -50.542      81.117      35.496
  N      -50.922      82.548      33.783
  C      -51.386      83.713      33.244
  O      -51.172      84.043      32.084
  C      -52.142      84.582      34.161
  C      -52.315      84.193      35.426
  O      -55.497      84.726      35.789
  O      -57.100      84.541      37.778
  H      -49.900      81.819      38.716
  H      -55.800      83.802      35.697
  H      -50.408      81.938      33.170
  H      -52.525      85.515      33.766
  H      -52.856      84.825      36.120
  H      -51.759      81.498      37.344
  H      -50.197      83.849      37.740
  H      -52.138      85.181      38.229
  H      -53.204      82.791      39.824
  H      -55.406      83.695      39.151
  H      -54.503      84.888      40.104
  P      -50.755      86.149      40.248
  C      -48.472      86.856      39.194
  O      -49.299      85.816      39.670
  O      -50.554      86.300      41.830
  O      -51.486      87.277      39.600
  H      -50.459      85.440      42.271
  H      -48.598      87.768      39.782
  H      -48.712      87.060      38.149
  H      -47.429      86.534      39.262
  H      -56.731      88.695      37.642
  H      -55.670      87.723      38.632
  H      -57.374      87.346      38.546

 3  4  5  6  7  8  9  10  11  12  13  23  28  29  30  31  32 0
 6-311+G(2d,p)
 ****
 33  34 0
 6-311+G(2d,p)
 ****
 1  2  14  15  16  17  18  19  20  21  22  24  25  26 0
 3-21G
 ****
 27  35  36  37  38  39  40  41  42  43  44  45 0
 3-21G
 ****


