%nproc=1
%NoSave
%Mem=1900MB
#P OB98/GEN NMR

erre ene a

0 1
  C       24.860     135.423    -118.085
  O       24.712     134.346    -119.026
  P       23.884     134.600    -120.378
  C       24.851     133.082    -122.268
  O       23.854     133.270    -121.276
  C       26.187     132.655    -121.642
  O       25.999     131.466    -120.821
  C       27.289     132.327    -122.659
  O       28.538     132.701    -122.062
  C       27.194     130.816    -122.768
  O       28.370     130.217    -123.294
  C       26.905     130.455    -121.308
  N       26.345     129.118    -121.119
  C       27.211     128.032    -121.188
  O       28.407     128.114    -121.459
  N       26.645     126.803    -120.962
  C       25.326     126.555    -120.721
  O       24.876     125.427    -120.557
  C       24.453     127.736    -120.688
  C       24.994     128.940    -120.884
  O       24.880     135.545    -121.206
  O       22.562     135.276    -120.204
  H       29.090     130.384    -122.658
  H       24.386     136.292    -121.589
  H       27.261     126.006    -120.995
  H       23.400     127.583    -120.493
  H       24.370     129.828    -120.851
  H       27.825     130.549    -120.720
  H       26.362     130.552    -123.429
  H       27.157     132.841    -123.617
  H       26.516     133.454    -120.966
  H       24.998     134.020    -122.812
  H       24.508     132.323    -122.979
  P       29.092     134.190    -122.314
  C       30.602     134.097    -120.181
  O       30.505     134.301    -121.572
  O       28.109     135.025    -121.360
  O       29.046     134.633    -123.739
  H       27.997     134.615    -120.487
  H       29.976     133.262    -119.854
  H       30.298     135.005    -119.655
  H       31.641     133.874    -119.929
  H       25.434     135.088    -117.247
  H       23.894     135.741    -117.752
  H       25.362     136.242    -118.556

 3  4  5  6  7  8  9  10  11  12  13  23  28  29  30  31  32 0
 6-311+G(2d,p)
 ****
 33  34 0
 6-311+G(2d,p)
 ****
 1  2  14  15  16  17  18  19  20  21  22  24  25  26 0
 3-21G
 ****
 27  35  36  37  38  39  40  41  42  43  44  45 0
 3-21G
 ****


