%nproc=1
%NoSave
%Mem=1900MB
#P OB98/GEN NMR

erre ene a

0 1
  C      179.415    -610.637    -422.504
  O      178.553    -611.099    -423.537
  P      178.574    -610.302    -424.934
  C      178.484    -612.316    -426.568
  O      179.274    -611.288    -425.985
  C      179.364    -613.319    -427.312
  O      180.255    -613.980    -426.390
  C      178.603    -614.434    -428.014
  O      178.094    -614.022    -429.277
  C      179.703    -615.464    -428.199
  O      180.532    -615.106    -429.323
  C      180.500    -615.320    -426.893
  N      181.493    -619.943    -424.947
  C      182.003    -619.285    -426.009
  N      181.682    -618.061    -426.467
  C      180.688    -617.522    -425.733
  C      180.040    -618.094    -424.650
  C      180.485    -619.365    -424.244
  N      179.980    -620.025    -423.149
  N      179.071    -617.241    -424.158
  C      179.139    -616.176    -424.926
  N      180.111    -616.291    -425.888
  O      179.691    -609.175    -424.690
  O      177.270    -609.718    -425.348
  H      180.016    -615.294    -430.127
  H      179.543    -608.422    -425.296
  H      182.786    -619.802    -426.547
  H      178.524    -615.294    -424.816
  H      181.578    -615.420    -427.046
  H      179.319    -616.469    -428.397
  H      177.816    -614.847    -427.370
  H      179.978    -612.756    -428.029
  H      177.777    -611.872    -427.272
  H      180.475    -620.835    -422.816
  H      179.384    -619.500    -422.514
  H      177.915    -612.823    -425.772
  P      176.638    -613.353    -429.286
  C      177.497    -611.117    -430.294
  O      176.894    -611.771    -429.193
  O      176.053    -613.734    -427.845
  O      175.760    -613.812    -430.401
  H      175.073    -613.750    -427.871
  H      177.318    -610.039    -430.195
  H      177.072    -611.455    -431.235
  H      178.575    -611.292    -430.290
  H      179.298    -611.255    -421.639
  H      179.165    -609.626    -422.257
  H      180.430    -610.682    -422.840

 3  4  5  6  7  8  9  10  11  12  22  25  29  30  31  32 0
 6-311+G(2d,p)
 ****
 33  36  37 0
 6-311+G(2d,p)
 ****
 1  2  13  14  15  16  17  18  19  20  21  23  24  26 0
 3-21G
 ****
 27  28  34  35  38  39  40  41  42  43  44  45  46  47  48 0
 3-21G
 ****


