%nproc=1
%NoSave
%Mem=1900MB
#P OB98/GEN NMR

erre ene a

0 1
  C       46.286      25.310      13.734
  O       45.174      25.997      14.263
  H       46.008      24.264      13.578
  H       47.114      25.350      14.448
  H       46.604      25.735      12.779
  P       45.138      27.593      14.164
  C       46.384      29.568      15.266
  O       46.045      28.189      15.350
  C       46.108      30.298      16.580
  O       44.704      30.196      16.906
  C       46.878      29.699      17.760
  O       48.186      30.219      17.933
  C       45.983      30.064      18.941
  O       46.313      31.361      19.465
  C       44.577      30.074      18.330
  N       40.713      28.049      20.997
  C       41.268      29.312      21.097
  N       40.746      30.112      22.052
  N       42.248      29.729      20.340
  C       42.728      28.783      19.501
  C       42.275      27.494      19.328
  C       41.140      27.064      20.118
  O       40.602      25.964      20.055
  N       43.037      26.809      18.413
  C       43.999      27.655      18.102
  N       43.809      28.891      18.675
  O       43.653      27.963      14.648
  O       45.405      28.162      12.804
  H       47.238      31.334      19.779
  H       43.352      28.769      14.192
  H       39.941      27.795      21.587
  H       44.828      27.442      17.437
  H       43.998      30.940      18.674
  H       46.109      29.352      19.761
  H       40.052      29.814      22.717
  H       46.914      28.608      17.685
  H       41.248      30.973      22.285
  H       46.332      31.365      16.455
  H       45.773      29.990      14.467
  H       47.432      29.684      14.976
  P       49.332      29.346      18.624
  C       49.667      28.312      21.015
  O       49.024      29.257      20.188
  O       50.609      30.306      18.553
  O       49.594      28.016      17.996
  H       51.181      30.063      17.800
  H       49.318      28.422      22.021
  H       50.724      28.472      20.984
  H       49.446      27.325      20.667

 6  7  8  9  10  11  12  13  14  15  26  29  33  34 0
 6-311+G(2d,p)
 ****
 36  38  39  40  41 0
 6-311+G(2d,p)
 ****
 1  2  3  4  5  16  17  18  19  20  21  22  23  24  25 0
 3-21G
 ****
 27  28  30  31  32  35  37  42  43  44  45  46  47 0
 3-21G
 ****
 48  49 0
 3-21G
 ****


