%nproc=1
%NoSave
%Mem=1900MB
#P OB98/GEN NMR

erre ene a

0 1
  C     -421.909     426.239    -245.453
  O     -422.703     427.416    -245.447
  P     -424.188     427.410    -244.833
  C     -425.023     427.299    -247.264
  O     -425.095     426.722    -245.964
  C     -426.423     427.674    -247.747
  O     -427.310     426.561    -247.485
  C     -427.071     428.871    -247.057
  O     -426.699     430.134    -247.595
  C     -428.542     428.612    -247.356
  O     -428.840     429.015    -248.704
  C     -428.634     427.091    -247.220
  N     -432.685     425.927    -244.321
  C     -432.576     426.274    -245.623
  N     -431.459     426.588    -246.316
  C     -430.371     426.473    -245.539
  C     -430.327     426.126    -244.199
  C     -431.555     425.841    -243.582
  N     -431.662     425.462    -242.258
  N     -429.023     426.134    -243.736
  C     -428.300     426.468    -244.785
  N     -429.067     426.674    -245.899
  O     -424.657     428.737    -244.340
  O     -424.137     426.300    -243.688
  H     -429.736     428.689    -248.906
  H     -424.903     426.404    -243.090
  H     -433.504     426.305    -246.182
  H     -427.224     426.577    -244.783
  H     -429.315     426.645    -247.955
  H     -429.215     429.173    -246.703
  H     -426.913     428.843    -245.972
  H     -426.384     427.823    -248.833
  H     -424.595     426.554    -247.944
  H     -432.567     425.154    -241.937
  H     -430.816     425.244    -241.755
  H     -424.367     428.170    -247.245
  P     -426.657     431.384    -246.578
  C     -429.242     431.776    -246.519
  O     -428.072     431.379    -245.834
  O     -426.255     432.672    -247.199
  O     -425.641     430.873    -245.446
  H     -425.960     430.137    -244.904
  H     -430.109     431.554    -245.894
  H     -429.341     431.239    -247.459
  H     -429.216     432.855    -246.710
  H     -420.961     426.451    -245.902
  H     -422.407     425.476    -246.014
  H     -421.761     425.904    -244.448

 3  4  5  6  7  8  9  10  11  12  22  25  29  30  31  32 0
 6-311+G(2d,p)
 ****
 33  36  37 0
 6-311+G(2d,p)
 ****
 1  2  13  14  15  16  17  18  19  20  21  23  24  26 0
 3-21G
 ****
 27  28  34  35  38  39  40  41  42  43  44  45  46  47  48 0
 3-21G
 ****


