%nproc=1
%NoSave
%Mem=1900MB
#P OB98/GEN NMR

erre ene a

0 1
  C     -147.410      89.786     528.107
  O     -146.156      89.291     527.671
  H     -147.911      90.268     527.262
  H     -147.282      90.529     528.901
  H     -148.036      88.967     528.469
  P     -145.161      88.679     528.767
  C     -143.237      88.624     527.037
  O     -143.690      89.105     528.300
  C     -142.031      89.434     526.572
  O     -142.430      90.773     526.218
  C     -140.963      89.591     527.647
  O     -140.221      88.397     527.800
  C     -140.191      90.784     527.114
  O     -139.278      90.388     526.080
  C     -141.332      91.657     526.538
  N     -141.755      92.707     527.459
  C     -140.807      93.695     527.739
  O     -139.693      93.658     527.221
  N     -141.145      94.692     528.625
  C     -142.321      94.713     529.164
  N     -142.592      95.724     530.032
  C     -143.358      93.695     528.885
  C     -143.004      92.730     528.037
  O     -145.313      87.221     529.078
  O     -145.413      89.596     530.057
  H     -138.703      89.704     526.480
  H     -146.127      89.222     530.608
  H     -144.327      93.757     529.354
  H     -143.708      91.945     527.772
  H     -141.018      92.131     525.599
  H     -139.615      91.269     527.897
  H     -141.427      89.884     528.598
  H     -141.618      88.954     525.674
  H     -141.847      96.396     530.201
  H     -144.065      88.743     526.329
  H     -143.501      95.892     530.441
  H     -142.980      87.563     527.094
  P     -139.359      88.135     529.127
  C     -137.917      86.676     527.564
  O     -137.917      87.644     528.607
  O     -140.009      87.258     530.144
  O     -139.060      89.618     529.664
  H     -139.866      90.021     530.071
  H     -136.908      86.430     527.306
  H     -138.418      87.075     526.707
  H     -138.425      85.795     527.895

 6  7  8  9  10  11  12  13  14  15  16  26  30  31  32  33  35 0
 6-311+G(2d,p)
 ****
 37  38 0
 6-311+G(2d,p)
 ****
 1  2  3  4  5  17  18  19  20  21  22  23  24  25 0
 3-21G
 ****
 27  28  29  34  36  39  40  41  42  43  44  45  46 0
 3-21G
 ****


