%nproc=1
%NoSave
%Mem=1900MB
#P OB98/GEN NMR

erre ene a

0 1
  C     -160.527      -2.215     -35.197
  O     -161.097      -2.774     -36.363
  H     -160.810      -1.162     -35.134
  H     -159.435      -2.281     -35.257
  H     -160.883      -2.733     -34.301
  P     -161.072      -4.371     -36.500
  C     -163.184      -4.707     -35.033
  O     -162.584      -4.886     -36.307
  C     -164.710      -4.767     -35.149
  O     -165.183      -3.511     -35.709
  C     -165.220      -5.900     -36.054
  O     -166.413      -6.447     -35.482
  C     -165.556      -5.189     -37.355
  O     -166.542      -5.882     -38.121
  C     -166.009      -3.823     -36.844
  N     -168.283       0.160     -38.940
  C     -168.647      -0.599     -37.844
  N     -169.792      -0.252     -37.215
  N     -167.946      -1.615     -37.403
  C     -166.806      -1.824     -38.111
  C     -166.342      -1.147     -39.215
  C     -167.139      -0.041     -39.708
  O     -166.886       0.652     -40.688
  N     -165.159      -1.682     -39.669
  C     -164.915      -2.683     -38.841
  N     -165.878      -2.804     -37.875
  O     -160.341      -4.838     -35.151
  O     -160.374      -4.900     -37.711
  H     -166.716      -5.351     -38.929
  H     -159.491      -5.266     -35.368
  H     -168.869       0.924     -39.246
  H     -164.064      -3.350     -38.899
  H     -167.057      -3.825     -36.521
  H     -164.650      -5.097     -37.970
  H     -170.353       0.546     -37.468
  H     -164.488      -6.696     -36.197
  H     -170.058      -0.775     -36.383
  H     -165.135      -4.847     -34.142
  H     -162.886      -3.733     -34.634
  H     -162.834      -5.494     -34.353
  P     -166.513      -8.047     -35.395
  C     -164.979      -8.369     -33.330
  O     -166.291      -8.488     -33.865
  O     -165.175      -8.535     -36.127
  O     -167.735      -8.613     -36.052
  H     -165.396      -8.918     -36.999
  H     -164.978      -8.695     -32.311
  H     -164.666      -7.347     -33.377
  H     -164.305      -8.975     -33.899

 6  7  8  9  10  11  12  13  14  15  26  29  33  34 0
 6-311+G(2d,p)
 ****
 36  38  39  40  41 0
 6-311+G(2d,p)
 ****
 1  2  3  4  5  16  17  18  19  20  21  22  23  24  25 0
 3-21G
 ****
 27  28  30  31  32  35  37  42  43  44  45  46  47 0
 3-21G
 ****
 48  49 0
 3-21G
 ****


