%nproc=1
%NoSave
%Mem=1900MB
#P OB98/GEN NMR

erre ene a

0 1
  C      885.566    -899.161     258.932
  O      885.781    -897.961     259.657
  P      885.591    -896.561     258.869
  C      883.003    -896.661     259.243
  O      884.069    -896.581     258.312
  C      882.289    -895.311     259.342
  O      881.891    -894.851     258.033
  C      881.038    -895.331     260.197
  O      881.352    -895.231     261.570
  C      880.285    -894.121     259.665
  O      880.788    -892.901     260.242
  C      880.615    -894.181     258.165
  N      876.241    -893.671     255.672
  C      876.892    -892.771     256.514
  N      876.311    -891.581     256.694
  N      878.015    -893.071     257.138
  C      878.448    -894.321     256.883
  C      877.881    -895.301     256.086
  C      876.692    -894.951     255.360
  O      876.130    -895.651     254.535
  N      878.642    -896.441     256.064
  C      879.652    -896.161     256.865
  N      879.614    -894.881     257.371
  O      886.472    -896.801     257.545
  O      885.973    -895.351     259.626
  H      881.737    -892.811     260.033
  H      887.344    -896.371     257.646
  H      875.389    -893.401     255.203
  H      880.468    -896.831     257.113
  H      880.724    -893.181     257.720
  H      879.213    -894.141     259.895
  H      875.441    -891.301     256.264
  H      880.452    -896.241     259.985
  H      876.789    -890.921     257.296
  H      883.020    -894.581     259.736
  H      883.396    -896.951     260.234
  H      882.314    -897.431     258.911
  P      880.456    -896.061     262.618
  C      882.343    -897.091     264.098
  O      881.326    -897.311     263.127
  O      879.350    -896.741     261.673
  O      879.849    -895.241     263.710
  H      878.487    -896.761     262.175
  H      882.455    -898.011     264.673
  H      882.075    -896.261     264.766
  H      883.284    -896.871     263.602
  H      885.726    -900.000     259.576
  H      886.248    -899.207     258.109
  H      884.561    -899.180     258.564

 3  4  5  6  7  8  9  10  11  12  23  26  30  31 0
 6-311+G(2d,p)
 ****
 33  35  36  37  38 0
 6-311+G(2d,p)
 ****
 1  2  13  14  15  16  17  18  19  20  21  22  24  25 0
 3-21G
 ****
 27  28  29  32  34  39  40  41  42  43  44  45  46  47  48  49 0
 3-21G
 ****


