%nproc=1
%NoSave
%Mem=1900MB
#P OB98/GEN NMR

erre ene a

0 1
  C       45.130      97.032     323.270
  O       43.781      96.946     323.677
  H       45.346      98.067     322.994
  H       45.291      96.394     322.396
  H       45.808      96.734     324.072
  P       43.299      95.640     324.467
  C       42.490      93.271     323.831
  O       42.848      94.562     323.363
  C       41.441      92.625     322.926
  O       40.263      93.465     322.864
  C       41.968      92.508     321.483
  O       41.391      91.412     320.786
  C       41.499      93.801     320.848
  O       41.436      93.737     319.425
  C       40.146      93.997     321.531
  N       36.304      97.230     322.396
  C       36.281      95.850     322.327
  N       35.078      95.248     322.487
  N       37.346      95.121     322.103
  C       38.471      95.855     321.891
  C       38.602      97.228     321.907
  C       37.424      98.018     322.198
  O       37.377      99.242     322.261
  N       39.897      97.606     321.626
  C       40.539      96.469     321.430
  N       39.713      95.377     321.591
  O       41.895      96.082     325.108
  O       44.241      95.122     325.510
  H       41.261      94.637     319.098
  H       41.699      95.544     325.897
  H       35.453      97.738     322.590
  H       41.583      96.382     321.178
  H       39.365      93.430     321.002
  H       42.221      94.594     321.106
  H       34.217      95.771     322.488
  H       43.057      92.416     321.455
  H       34.998      94.284     322.151
  H       41.121      91.660     323.330
  H       42.090      93.390     324.840
  H       43.381      92.637     323.901
  P       42.364      90.209     320.342
  C       43.496      89.530     318.071
  O       42.925      90.547     318.883
  O       41.373      88.977     320.108
  O       43.422      89.899     321.356
  H       41.436      88.349     320.837
  H       43.810      89.952     317.139
  H       42.768      88.767     317.890
  H       44.340      89.105     318.573

 6  7  8  9  10  11  12  13  14  15  26  29  33  34 0
 6-311+G(2d,p)
 ****
 36  38  39  40  41 0
 6-311+G(2d,p)
 ****
 1  2  3  4  5  16  17  18  19  20  21  22  23  24  25 0
 3-21G
 ****
 27  28  30  31  32  35  37  42  43  44  45  46  47 0
 3-21G
 ****
 48  49 0
 3-21G
 ****


