%nproc=1
%NoSave
%Mem=1900MB
#P OB98/GEN NMR

erre ene a

0 1
  C      160.808       3.043     -19.185
  O      160.608       1.722     -19.641
  H      160.953       3.694     -20.049
  H      161.704       3.087     -18.561
  H      159.944       3.402     -18.619
  P      160.085       0.616     -18.607
  C      157.591       1.274     -18.618
  O      158.803       1.247     -17.877
  C      156.774       0.001     -18.371
  O      156.533      -0.132     -16.941
  C      155.405      -0.006     -19.069
  O      155.092      -1.369     -19.383
  C      154.495       0.504     -17.968
  O      153.143       0.213     -18.239
  C      155.107      -0.190     -16.749
  N      154.695       0.430     -15.490
  C      153.835      -0.308     -14.688
  O      153.396      -1.414     -15.007
  N      153.449       0.282     -13.516
  C      153.786       1.540     -13.109
  O      153.386       2.032     -12.063
  C      154.664       2.293     -14.020
  C      155.076       1.711     -15.149
  O      161.113       0.052     -17.685
  O      159.433      -0.515     -19.535
  H      152.600       0.331     -17.429
  H      159.517      -1.388     -19.109
  H      152.833      -0.245     -12.917
  H      154.944       3.296     -13.731
  H      155.723       2.240     -15.840
  H      154.813      -1.247     -16.717
  H      154.581       1.591     -17.871
  H      155.378       0.611     -19.969
  H      157.375      -0.865     -18.673
  H      157.847       1.349     -19.680
  H      157.006       2.153     -18.330
  P      154.726      -1.839     -20.873
  C      157.109      -2.591     -21.502
  O      156.035      -1.701     -21.792
  O      153.508      -1.188     -21.440
  O      154.519      -3.423     -20.760
  H      153.896      -3.724     -21.448
  H      157.919      -2.404     -22.176
  H      156.776      -3.601     -21.616
  H      157.439      -2.436     -20.496

 6  7  8  9  10  11  12  13  14  15  16  26  31  32  33  34  35 0
 6-311+G(2d,p)
 ****
 36  37 0
 6-311+G(2d,p)
 ****
 1  2  3  4  5  17  18  19  20  21  22  23  24  25 0
 3-21G
 ****
 27  28  29  30  38  39  40  41  42  43  44  45 0
 3-21G
 ****


