%nproc=1
%NoSave
%Mem=1900MB
#P OB98/GEN NMR

erre ene a

0 1
  C      287.722     668.139     -51.674
  O      288.625     668.013     -52.760
  H      287.255     667.169     -51.494
  H      286.941     668.867     -51.919
  H      288.254     668.452     -50.773
  P      289.343     669.367     -53.249
  C      287.440     669.710     -55.001
  O      288.829     669.534     -54.755
  C      287.222     670.903     -55.924
  O      287.752     672.106     -55.323
  C      287.927     670.788     -57.278
  O      287.236     669.942     -58.194
  C      287.909     672.236     -57.716
  O      286.594     672.595     -58.180
  C      288.260     672.958     -56.394
  N      289.689     673.196     -56.232
  C      290.250     674.241     -56.963
  O      289.549     674.911     -57.732
  N      291.596     674.498     -56.850
  C      292.330     673.775     -56.064
  N      293.658     674.047     -55.991
  C      291.787     672.665     -55.239
  C      290.476     672.437     -55.378
  O      290.874     668.934     -53.448
  O      289.143     670.559     -52.377
  H      285.977     672.390     -57.453
  H      291.374     669.674     -53.870
  H      292.426     672.080     -54.609
  H      289.998     671.635     -54.813
  H      287.736     673.921     -56.326
  H      288.610     672.433     -58.541
  H      288.969     670.462     -57.168
  H      286.138     671.046     -56.053
  H      294.021     674.777     -56.603
  H      286.940     669.878     -54.045
  H      294.327     673.429     -55.543
  H      287.020     668.815     -55.471
  P      287.837     668.492     -58.478
  C      289.139     669.314     -60.574
  O      288.162     668.425     -60.051
  O      286.578     667.521     -58.324
  O      288.970     668.085     -57.577
  H      286.822     666.693     -57.890
  H      289.243     669.150     -61.626
  H      290.077     669.137     -60.091
  H      288.832     670.324     -60.399

 6  7  8  9  10  11  12  13  14  15  16  26  30  31  32  33  35 0
 6-311+G(2d,p)
 ****
 37  38 0
 6-311+G(2d,p)
 ****
 1  2  3  4  5  17  18  19  20  21  22  23  24  25 0
 3-21G
 ****
 27  28  29  34  36  39  40  41  42  43  44  45  46 0
 3-21G
 ****


