%nproc=1
%NoSave
%Mem=1900MB
#P OB98/GEN NMR

erre ene a

0 1
  C     -262.356     358.520     466.568
  O     -261.960     357.365     467.280
  P     -260.458     356.816     467.163
  C     -259.837     358.385     469.107
  O     -259.475     357.911     467.814
  C     -258.588     358.739     469.915
  O     -257.778     357.563     470.151
  C     -257.657     359.721     469.220
  O     -258.182     361.040     469.214
  C     -256.382     359.543     470.029
  O     -256.443     360.285     471.255
  C     -256.413     358.026     470.319
  N     -255.493     357.276     469.474
  C     -254.351     356.774     470.113
  O     -254.122     357.035     471.289
  N     -253.489     355.992     469.378
  C     -253.684     355.832     468.104
  N     -252.836     354.996     467.448
  C     -254.789     356.478     467.368
  C     -255.654     357.161     468.113
  O     -260.056     356.343     465.805
  O     -260.397     355.617     468.223
  H     -260.023     354.829     467.783
  H     -257.181     359.911     471.771
  H     -254.865     356.369     466.296
  H     -256.516     357.653     467.664
  H     -256.161     357.832     471.370
  H     -255.494     359.879     469.489
  H     -257.480     359.398     468.183
  H     -258.908     359.140     470.884
  H     -252.100     354.557     467.989
  H     -260.396     357.597     469.628
  H     -253.077     354.553     466.565
  H     -260.483     359.262     469.003
  P     -257.586     362.061     468.129
  C     -257.985     361.015     465.795
  O     -257.087     361.195     466.877
  O     -256.220     362.562     468.813
  O     -258.479     363.212     467.796
  H     -256.076     363.503     468.596
  H     -257.406     360.725     464.910
  H     -258.539     361.929     465.572
  H     -258.685     360.208     466.031
  H     -263.386     358.729     466.771
  H     -262.226     358.354     465.519
  H     -261.756     359.351     466.875

 3  4  5  6  7  8  9  10  11  12  13  24  27  28  29  30  32 0
 6-311+G(2d,p)
 ****
 34  35 0
 6-311+G(2d,p)
 ****
 1  2  14  15  16  17  18  19  20  21  22  23  25  26 0
 3-21G
 ****
 31  33  36  37  38  39  40  41  42  43  44  45  46 0
 3-21G
 ****


