%nproc=1
%NoSave
%Mem=1900MB
#P OB98/GEN NMR

erre ene a

0 1
  C      317.355    -237.277     370.836
  O      318.717    -237.243     370.461
  H      317.255    -236.864     371.843
  H      316.984    -238.307     370.837
  H      316.760    -236.671     370.144
  P      319.085    -237.909     369.043
  C      321.138    -239.165     370.042
  O      319.852    -239.261     369.448
  C      322.084    -240.170     369.387
  O      323.442    -239.952     369.816
  C      321.776    -241.626     369.720
  O      320.691    -242.144     368.974
  C      323.094    -242.279     369.334
  O      323.174    -242.384     367.901
  C      324.109    -241.245     369.874
  N      324.555    -241.538     371.236
  C      325.411    -242.636     371.393
  O      325.744    -243.314     370.426
  N      325.838    -242.962     372.661
  C      325.461    -242.255     373.676
  N      325.904    -242.631     374.912
  C      324.579    -241.083     373.552
  C      324.164    -240.783     372.325
  O      320.269    -236.987     368.488
  O      317.949    -238.092     368.092
  H      323.901    -243.005     367.704
  H      320.651    -237.388     367.672
  H      324.275    -240.524     374.429
  H      323.509    -239.932     372.153
  H      324.988    -241.187     369.222
  H      323.206    -243.285     369.738
  H      321.621    -241.767     370.799
  H      322.056    -239.997     368.297
  H      326.458    -243.475     374.970
  H      321.046    -239.382     371.112
  H      325.520    -242.257     375.764
  H      321.541    -238.154     369.914
  P      319.637    -243.085     369.748
  C      321.246    -245.126     369.656
  O      320.485    -244.242     370.476
  O      318.898    -243.857     368.556
  O      318.668    -242.355     370.631
  H      317.947    -243.965     368.745
  H      321.753    -245.837     370.274
  H      321.964    -244.564     369.096
  H      320.592    -245.640     368.983

 6  7  8  9  10  11  12  13  14  15  16  26  30  31  32  33  35 0
 6-311+G(2d,p)
 ****
 37  38 0
 6-311+G(2d,p)
 ****
 1  2  3  4  5  17  18  19  20  21  22  23  24  25 0
 3-21G
 ****
 27  28  29  34  36  39  40  41  42  43  44  45  46 0
 3-21G
 ****


