%nproc=1
%NoSave
%Mem=1900MB
#P OB98/GEN NMR

erre ene a

0 1
  C     -138.045     191.115     143.603
  O     -138.625     190.093     144.386
  H     -137.030     191.298     143.961
  H     -138.622     192.038     143.703
  H     -137.997     190.820     142.551
  P     -140.050     189.504     143.954
  C     -139.561     188.324     141.710
  O     -139.762     188.173     143.107
  C     -139.759     186.987     140.986
  O     -139.783     187.238     139.547
  C     -138.642     185.956     141.244
  O     -139.241     184.655     141.146
  C     -137.720     186.232     140.070
  O     -136.739     185.240     139.908
  C     -138.769     186.394     138.962
  N     -138.278     186.967     137.715
  C     -137.474     186.167     136.907
  O     -137.153     185.009     137.169
  N     -137.030     186.750     135.751
  C     -137.314     188.014     135.325
  O     -136.912     188.471     134.262
  C     -138.160     188.813     136.222
  C     -138.602     188.261     137.355
  O     -140.987     190.471     143.312
  O     -140.649     188.926     145.324
  H     -141.308     189.549     145.681
  H     -137.172     184.360     139.901
  H     -136.450     186.185     135.151
  H     -138.396     189.823     135.923
  H     -139.236     188.822     138.033
  H     -139.240     185.427     138.750
  H     -137.177     187.166     140.234
  H     -138.173     186.068     142.225
  H     -140.741     186.581     141.254
  H     -138.539     188.683     141.549
  H     -140.264     189.069     141.324
  P     -139.174     183.560     142.316
  C     -141.334     183.825     143.715
  O     -140.675     183.116     142.672
  O     -138.378     183.990     143.503
  O     -138.539     182.256     141.638
  H     -138.090     181.720     142.319
  H     -142.320     183.430     143.847
  H     -141.397     184.862     143.457
  H     -140.781     183.716     144.625

 6  7  8  9  10  11  12  13  14  15  16  27  31  32  33  34  35 0
 6-311+G(2d,p)
 ****
 36  37 0
 6-311+G(2d,p)
 ****
 1  2  3  4  5  17  18  19  20  21  22  23  24  25 0
 3-21G
 ****
 26  28  29  30  38  39  40  41  42  43  44  45 0
 3-21G
 ****


