%nproc=1
%NoSave
%Mem=1900MB
#P OB98/GEN NMR

erre ene a

0 1
  C      263.321     -72.750      23.481
  O      264.433     -73.452      23.999
  H      262.624     -72.549      24.297
  H      262.808     -73.349      22.721
  H      263.639     -71.797      23.048
  P      265.572     -73.940      22.984
  C      265.889     -76.012      21.464
  O      264.977     -75.214      22.213
  C      265.133     -77.058      20.639
  O      264.282     -76.412      19.671
  C      266.040     -77.988      19.835
  O      266.645     -78.950      20.683
  C      265.047     -78.540      18.827
  O      264.229     -79.563      19.415
  C      264.205     -77.280      18.513
  N      264.635     -76.577      17.308
  C      263.748     -76.617      16.223
  O      262.685     -77.234      16.314
  N      264.106     -75.971      15.065
  C      265.219     -75.308      15.004
  N      265.513     -74.683      13.822
  C      266.163     -75.210      16.135
  C      265.818     -75.870      17.239
  O      266.933     -74.153      23.568
  O      265.592     -72.806      21.849
  H      263.774     -80.005      18.674
  H      266.265     -72.131      22.049
  H      267.077     -74.640      16.045
  H      266.452     -75.851      18.121
  H      263.143     -77.549      18.394
  H      265.540     -78.984      17.961
  H      266.801     -77.410      19.295
  H      264.488     -77.625      21.319
  H      264.824     -74.766      13.085
  H      266.550     -76.508      22.182
  H      266.261     -74.017      13.719
  H      266.502     -75.383      20.805
  P      267.988     -79.712      20.261
  C      268.617     -81.457      18.475
  O      267.566     -80.715      19.074
  O      268.739     -80.346      21.384
  O      268.833     -78.597      19.483
  H      269.253     -77.971      20.125
  H      268.217     -82.084      17.705
  H      269.094     -82.063      19.217
  H      269.332     -80.784      18.051

 6  7  8  9  10  11  12  13  14  15  16  26  30  31  32  33  35 0
 6-311+G(2d,p)
 ****
 37  38 0
 6-311+G(2d,p)
 ****
 1  2  3  4  5  17  18  19  20  21  22  23  24  25 0
 3-21G
 ****
 27  28  29  34  36  39  40  41  42  43  44  45  46 0
 3-21G
 ****


