%nproc=1
%NoSave
%Mem=1900MB
#P OB98/GEN NMR

erre ene a

0 1
  C      201.005     391.932     -21.838
  O      201.763     392.710     -20.928
  P      201.861     392.228     -19.404
  C      200.907     394.353     -18.186
  O      202.030     393.553     -18.516
  C      201.269     395.839     -18.278
  O      202.423     396.094     -17.424
  C      201.625     396.323     -19.688
  O      201.149     397.670     -19.809
  C      203.143     396.295     -19.681
  O      203.710     397.142     -20.671
  C      203.431     396.724     -18.239
  N      204.768     396.354     -17.776
  C      205.832     397.178     -18.128
  O      205.716     398.184     -18.825
  N      207.063     396.787     -17.672
  C      207.341     395.644     -16.977
  O      208.467     395.333     -16.609
  C      206.182     394.790     -16.673
  C      204.975     395.181     -17.070
  O      203.313     391.558     -19.383
  O      200.747     391.331     -18.985
  H      203.954     392.021     -19.952
  H      203.576     398.065     -20.391
  H      207.844     397.387     -17.885
  H      206.367     393.867     -16.135
  H      204.108     394.565     -16.863
  H      203.295     397.808     -18.137
  H      203.488     395.273     -19.870
  H      201.180     395.700     -20.469
  H      200.431     396.419     -17.872
  H      200.587     394.124     -17.167
  H      200.081     394.111     -18.863
  P      200.458     398.110     -21.195
  C      202.508     399.679     -21.635
  O      201.106     399.510     -21.628
  O      199.007     398.537     -20.666
  O      200.405     397.038     -22.235
  H      199.043     399.127     -19.896
  H      202.751     400.545     -22.260
  H      203.015     398.805     -22.038
  H      202.858     399.873     -20.618
  H      201.038     392.384     -22.807
  H      199.990     391.880     -21.503
  H      201.415     390.945     -21.891

 3  4  5  6  7  8  9  10  11  12  13  24  28  29  30  31  32 0
 6-311+G(2d,p)
 ****
 33  34 0
 6-311+G(2d,p)
 ****
 1  2  14  15  16  17  18  19  20  21  22  23  25  26  27 0
 3-21G
 ****
 35  36  37  38  39  40  41  42  43  44  45 0
 3-21G
 ****


