%nproc=1
%NoSave
%Mem=1900MB
#P OB98/GEN NMR

erre ene a

0 1
  C      -40.612      60.225     -66.053
  O      -40.635      59.596     -67.315
  P      -42.010      59.123     -67.985
  C      -43.668      57.177     -67.664
  O      -42.489      57.814     -67.183
  C      -44.214      56.205     -66.612
  O      -44.363      56.922     -65.347
  C      -45.591      55.624     -66.992
  O      -45.663      54.198     -66.946
  C      -46.535      56.357     -66.052
  O      -47.773      55.701     -65.854
  C      -45.650      56.554     -64.815
  N      -46.184      57.560     -63.900
  C      -46.985      57.107     -62.856
  O      -47.259      55.927     -62.652
  N      -47.533      58.072     -62.058
  C      -47.460      59.417     -62.264
  O      -48.059      60.224     -61.566
  C      -46.633      59.836     -63.406
  C      -46.023      58.909     -64.148
  O      -41.974      58.955     -69.467
  O      -43.057      60.224     -67.479
  H      -48.372      56.322     -65.399
  H      -43.150      60.286     -66.512
  H      -48.116      57.757     -61.298
  H      -46.564      60.897     -63.600
  H      -45.406      59.187     -64.995
  H      -45.520      55.622     -64.265
  H      -46.759      57.334     -66.498
  H      -45.849      55.868     -68.028
  H      -43.474      55.411     -66.475
  H      -43.422      56.621     -68.572
  H      -44.414      57.931     -67.933
  P      -46.725      53.306     -67.744
  C      -49.318      53.396     -67.914
  O      -48.170      53.559     -67.107
  O      -46.352      51.871     -67.911
  O      -46.824      54.031     -69.169
  H      -47.051      53.373     -69.854
  H      -50.106      54.055     -67.539
  H      -49.664      52.362     -67.842
  H      -49.114      53.644     -68.959
  H      -39.602      60.459     -65.789
  H      -41.029      59.567     -65.319
  H      -41.188      61.126     -66.093

 3  4  5  6  7  8  9  10  11  12  13  23  28  29  30  31  32 0
 6-311+G(2d,p)
 ****
 33  34 0
 6-311+G(2d,p)
 ****
 1  2  14  15  16  17  18  19  20  21  22  24  25  26  27 0
 3-21G
 ****
 35  36  37  38  39  40  41  42  43  44  45 0
 3-21G
 ****


