%nproc=1
%NoSave
%Mem=1900MB
#P OB98/GEN NMR

erre ene a

0 1
  C     -476.247    -313.662     373.281
  O     -476.072    -312.290     373.566
  H     -475.287    -314.125     373.026
  H     -476.647    -314.163     374.170
  H     -476.953    -313.796     372.455
  P     -475.499    -311.371     372.384
  C     -474.750    -308.882     372.354
  O     -475.620    -309.857     372.908
  C     -474.655    -307.686     373.300
  O     -475.952    -307.069     373.452
  C     -474.192    -308.035     374.708
  O     -472.777    -308.178     374.791
  C     -474.674    -306.818     375.471
  O     -473.780    -305.712     375.233
  C     -476.034    -306.554     374.814
  N     -479.727    -305.946     378.298
  C     -478.765    -305.112     377.856
  N     -477.816    -305.358     376.930
  C     -477.926    -306.604     376.448
  C     -478.853    -307.563     376.809
  C     -479.796    -307.188     377.783
  N     -480.778    -308.040     378.254
  N     -478.634    -308.743     376.121
  C     -477.613    -308.482     375.328
  N     -477.139    -307.201     375.496
  O     -476.634    -311.455     371.254
  O     -474.147    -311.743     371.869
  H     -473.736    -305.585     374.266
  H     -476.258    -311.215     370.387
  H     -478.751    -304.125     378.304
  H     -477.179    -309.174     374.625
  H     -476.273    -305.486     374.750
  H     -474.706    -306.974     376.552
  H     -474.707    -308.928     375.090
  H     -473.981    -306.948     372.841
  H     -475.151    -308.545     371.391
  H     -481.276    -307.741     379.069
  H     -480.740    -309.011     377.978
  H     -473.763    -309.325     372.197
  P     -472.173    -308.753     376.161
  C     -469.857    -309.761     376.771
  O     -470.829    -309.517     375.764
  O     -473.186    -309.940     376.538
  O     -472.054    -307.749     377.264
  H     -473.194    -310.098     377.499
  H     -469.023    -310.278     376.344
  H     -470.289    -310.359     377.546
  H     -469.527    -308.830     377.181

 6  7  8  9  10  11  12  13  14  15  25  28  32  33  34  35 0
 6-311+G(2d,p)
 ****
 36  39  40 0
 6-311+G(2d,p)
 ****
 1  2  3  4  5  16  17  18  19  20  21  22  23  24 0
 3-21G
 ****
 26  27  29  30  31  37  38  41  42  43  44  45  46  47 0
 3-21G
 ****
 48 0
 3-21G
 ****


