%nproc=1
%NoSave
%Mem=1900MB
#P OB98/GEN NMR

erre ene a

0 1
  C       39.207    -700.299     130.021
  O       39.670    -699.759     128.771
  P       40.568    -698.430     128.772
  C       38.433    -696.938     128.508
  O       39.650    -697.186     129.203
  C       37.668    -695.788     129.173
  O       38.516    -694.620     129.288
  C       36.447    -695.314     128.399
  O       35.343    -696.192     128.553
  C       36.214    -693.939     129.019
  O       35.477    -694.047     130.248
  C       37.658    -693.462     129.283
  N       38.107    -692.470     128.312
  C       37.477    -691.225     128.364
  O       36.549    -690.970     129.129
  N       37.932    -690.293     127.469
  C       38.881    -690.490     126.507
  O       39.232    -689.617     125.723
  C       39.449    -691.846     126.447
  C       39.040    -692.761     127.333
  O       40.774    -698.166     127.203
  O       41.888    -698.535     129.462
  H       35.989    -694.648     130.825
  H       41.609    -697.689     127.058
  H       37.503    -689.374     127.513
  H       40.193    -692.050     125.689
  H       39.449    -693.764     127.303
  H       37.730    -693.033     130.287
  H       35.640    -693.276     128.357
  H       36.700    -695.186     127.335
  H       37.388    -696.103     130.186
  H       37.806    -697.838     128.534
  H       38.662    -696.702     127.459
  P       35.103    -697.259     127.368
  C       33.193    -695.727     126.455
  O       34.389    -696.426     126.199
  O       33.945    -698.162     128.010
  O       36.336    -698.005     126.992
  H       33.350    -697.644     128.579
  H       33.159    -695.339     127.474
  H       32.338    -696.399     126.291
  H       33.118    -694.888     125.758
  H       38.627    -701.179     129.836
  H       38.602    -699.572     130.522
  H       40.047    -700.548     130.635

 3  4  5  6  7  8  9  10  11  12  13  23  28  29  30  31  32 0
 6-311+G(2d,p)
 ****
 33  34 0
 6-311+G(2d,p)
 ****
 1  2  14  15  16  17  18  19  20  21  22  24  25  26 0
 3-21G
 ****
 27  35  36  37  38  39  40  41  42  43  44  45 0
 3-21G
 ****


