%nproc=1
%NoSave
%Mem=1900MB
#P OB98/GEN NMR

erre ene a

0 1
  C     1025.360    -552.987     299.337
  O     1024.221    -552.786     300.174
  P     1023.057    -553.889     300.325
  C     1023.305    -556.291     301.233
  O     1023.461    -554.904     301.510
  C     1023.527    -557.143     302.492
  O     1024.908    -557.110     302.896
  C     1022.707    -556.715     303.699
  O     1021.362    -557.159     303.582
  C     1023.504    -557.337     304.837
  O     1023.165    -558.735     304.983
  C     1024.951    -557.181     304.342
  N     1027.449    -555.334     308.409
  C     1026.929    -556.552     308.139
  N     1026.269    -556.972     307.035
  C     1026.188    -555.972     306.137
  C     1026.667    -554.682     306.263
  C     1027.316    -554.359     307.467
  N     1027.826    -553.115     307.740
  N     1026.367    -553.931     305.141
  C     1025.748    -554.782     304.333
  N     1025.609    -556.022     304.887
  O     1022.693    -554.564     299.046
  O     1021.809    -553.092     300.926
  H     1023.819    -559.142     305.577
  H     1020.976    -553.525     300.647
  H     1027.081    -557.298     308.925
  H     1025.383    -554.526     303.339
  H     1025.553    -558.066     304.591
  H     1023.310    -556.863     305.799
  H     1022.729    -555.621     303.799
  H     1023.292    -558.188     302.228
  H     1024.034    -556.568     300.472
  H     1028.250    -552.946     308.644
  H     1027.702    -552.375     307.061
  H     1022.297    -556.444     300.843
  P     1020.352    -556.419     302.583
  C     1019.261    -557.232     300.406
  O     1020.449    -557.189     301.174
  O     1020.480    -554.936     302.502
  O     1018.906    -556.860     303.121
  H     1018.256    -556.156     302.908
  H     1018.601    -558.032     300.784
  H     1019.524    -557.461     299.364
  H     1018.747    -556.279     300.429
  H     1025.998    -552.129     299.391
  H     1025.039    -553.130     298.326
  H     1025.897    -553.852     299.667

 3  4  5  6  7  8  9  10  11  12  22  25  29  30  31  32 0
 6-311+G(2d,p)
 ****
 33  36  37 0
 6-311+G(2d,p)
 ****
 1  2  13  14  15  16  17  18  19  20  21  23  24  26 0
 3-21G
 ****
 27  28  34  35  38  39  40  41  42  43  44  45  46  47  48 0
 3-21G
 ****


