%nproc=1
%NoSave
%Mem=1900MB
#P OB98/GEN NMR

erre ene a

0 1
  C      -13.209     173.015     175.571
  O      -13.278     174.033     176.551
  H      -14.006     172.288     175.744
  H      -13.352     173.465     174.586
  H      -12.236     172.517     175.595
  P      -12.800     173.657     178.037
  C      -11.471     175.883     178.147
  O      -11.439     174.471     178.293
  C      -10.191     176.506     178.708
  O      -10.263     176.472     180.163
  C       -8.901     175.795     178.283
  O       -7.894     176.785     178.050
  C       -8.524     174.990     179.514
  O       -7.127     174.712     179.587
  C       -9.027     175.898     180.630
  N       -6.803     174.534     184.997
  C       -6.501     175.490     184.090
  N       -7.181     175.822     182.974
  C       -8.315     175.105     182.873
  C       -8.757     174.101     183.722
  C       -7.933     173.809     184.822
  N       -8.191     172.795     185.716
  N       -9.936     173.559     183.247
  C      -10.185     174.201     182.126
  N       -9.229     175.145     181.856
  O      -12.304     172.140     177.863
  O      -13.837     173.784     179.100
  H       -6.966     174.125     180.354
  H      -13.059     171.535     177.985
  H       -5.589     176.052     184.278
  H      -11.012     174.007     181.457
  H       -8.330     176.715     180.858
  H       -9.065     174.035     179.507
  H       -9.013     175.167     177.391
  H      -10.168     177.565     178.417
  H      -12.330     176.277     178.697
  H       -7.493     172.589     186.410
  H       -8.971     172.175     185.536
  H      -11.581     176.135     177.088
  P       -7.490     177.083     176.529
  C       -8.116     179.545     177.114
  O       -8.059     178.524     176.118
  O       -8.417     176.072     175.699
  O       -6.041     176.869     176.230
  H       -7.953     175.778     174.889
  H       -8.516     180.440     176.685
  H       -7.131     179.737     177.485
  H       -8.744     179.224     177.919

 6  7  8  9  10  11  12  13  14  15  25  28  32  33  34  35 0
 6-311+G(2d,p)
 ****
 36  39  40 0
 6-311+G(2d,p)
 ****
 1  2  3  4  5  16  17  18  19  20  21  22  23  24 0
 3-21G
 ****
 26  27  29  30  31  37  38  41  42  43  44  45  46  47 0
 3-21G
 ****
 48 0
 3-21G
 ****


