%nproc=1
%NoSave
%Mem=1900MB
#P OB98/GEN NMR

erre ene a

0 1
  C      -65.512      27.939      23.876
  O      -65.585      29.333      24.080
  H      -64.495      27.684      23.567
  H      -66.205      27.646      23.081
  H      -65.748      27.390      24.790
  P      -66.840      29.931      24.873
  C      -65.611      29.918      27.142
  O      -66.266      30.702      26.158
  C      -64.367      30.634      27.682
  O      -63.558      31.101      26.577
  C      -64.772      31.870      28.491
  O      -63.823      32.183      29.506
  C      -64.765      32.973      27.444
  O      -64.629      34.275      28.007
  C      -63.588      32.540      26.573
  N      -61.034      33.710      22.322
  C      -60.547      33.355      23.564
  N      -59.201      33.330      23.696
  N      -61.310      33.068      24.586
  C      -62.632      33.207      24.328
  C      -63.234      33.577      23.147
  C      -62.381      33.853      22.012
  O      -62.756      34.191      20.892
  N      -64.600      33.627      23.274
  C      -64.824      33.297      24.530
  N      -63.661      33.019      25.208
  O      -67.531      28.639      25.523
  O      -67.815      30.716      24.047
  H      -64.786      34.921      27.293
  H      -68.475      28.806      25.689
  H      -60.403      33.907      21.564
  H      -65.801      33.239      24.994
  H      -62.640      32.899      26.997
  H      -65.721      32.949      26.913
  H      -58.583      33.710      22.997
  H      -65.756      31.757      28.947
  H      -58.836      33.363      24.652
  H      -63.748      29.938      28.258
  H      -65.321      28.975      26.664
  H      -66.299      29.675      27.954
  P      -64.282      32.000      31.031
  C      -63.652      29.524      31.628
  O      -63.327      30.900      31.700
  O      -65.699      31.270      30.911
  O      -64.370      33.281      31.789
  H      -66.419      31.900      31.102
  H      -62.899      28.953      32.129
  H      -63.704      29.223      30.603
  H      -64.599      29.356      32.098

 6  7  8  9  10  11  12  13  14  15  26  29  33  34 0
 6-311+G(2d,p)
 ****
 36  38  39  40  41 0
 6-311+G(2d,p)
 ****
 1  2  3  4  5  16  17  18  19  20  21  22  23  24  25 0
 3-21G
 ****
 27  28  30  31  32  35  37  42  43  44  45  46  47 0
 3-21G
 ****
 48  49 0
 3-21G
 ****


