%nproc=1
%NoSave
%Mem=1900MB
#P OB98/GEN NMR

erre ene a

0 1
  C       33.508     142.277    -146.477
  O       34.024     141.332    -147.402
  P       35.606     141.063    -147.391
  C       37.677     142.208    -148.436
  O       36.258     142.142    -148.387
  C       38.146     142.811    -149.755
  O       37.821     141.892    -150.835
  C       37.505     144.166    -150.095
  O       38.514     145.053    -150.600
  C       36.565     143.837    -151.243
  O       36.316     144.968    -152.070
  C       37.341     142.709    -151.921
  N       36.812     141.466    -156.788
  C       37.861     142.094    -156.147
  N       38.890     142.498    -156.927
  N       37.900     142.312    -154.860
  C       36.820     141.827    -154.200
  C       35.724     141.179    -154.721
  C       35.667     140.999    -156.157
  O       34.727     140.530    -156.795
  N       34.839     140.821    -153.737
  C       35.396     141.255    -152.620
  N       36.576     141.915    -152.856
  O       35.739     139.681    -148.188
  O       36.228     140.971    -146.040
  H       35.784     144.657    -152.827
  H       36.207     139.027    -147.636
  H       36.827     141.338    -157.785
  H       34.968     141.144    -151.631
  H       38.210     143.110    -152.459
  H       35.610     143.484    -150.834
  H       38.942     142.330    -157.919
  H       36.984     144.640    -149.255
  H       39.679     142.941    -156.470
  H       39.240     142.896    -149.730
  H       38.088     141.198    -148.336
  H       38.031     142.817    -147.597
  P       38.185     146.622    -150.501
  C       37.472     148.406    -152.261
  O       37.605     147.036    -151.936
  O       39.632     147.302    -150.464
  O       37.347     146.991    -149.323
  H       39.587     148.176    -150.029
  H       37.952     149.055    -151.521
  H       36.411     148.659    -152.318
  H       37.932     148.585    -153.237
  H       32.448     142.352    -146.598
  H       33.956     143.232    -146.655
  H       33.731     141.959    -145.480

 3  4  5  6  7  8  9  10  11  12  23  26  30  31  33  0
 6-311+G(2d,p)
 ****
 35  36  37  38 0
 6-311+G(2d,p)
 ****
 1  2  13  14  15  16  17  18  19  20  21  22  24  25  27  28  29 0
 3-21G
 ****
 32  34  39  40  41  42  43  44  45  46  47  48  49 0
 3-21G
 ****


