%nproc=1
%NoSave
%Mem=1900MB
#P OB98/GEN NMR

erre ene a

0 1
  C     -221.565     -87.182     -99.402
  O     -221.032     -86.330     -98.402
  P     -220.835     -84.777     -98.744
  C     -219.522     -83.490    -100.619
  O     -219.767     -84.706     -99.940
  C     -219.042     -83.766    -102.048
  O     -220.139     -84.343    -102.811
  C     -218.559     -82.523    -102.810
  O     -217.476     -82.934    -103.652
  C     -219.772     -82.148    -103.644
  O     -219.437     -81.355    -104.772
  C     -220.320     -83.537    -103.991
  N     -221.730     -83.526    -104.389
  C     -222.025     -83.712    -105.737
  O     -221.173     -83.865    -106.611
  N     -223.356     -83.689    -106.061
  C     -224.390     -83.436    -105.206
  O     -225.564     -83.409    -105.554
  C     -224.013     -83.198    -103.805
  C     -222.724     -83.263    -103.467
  O     -220.017     -84.280     -97.461
  O     -222.112     -84.052     -98.998
  H     -219.396     -84.948     -97.124
  H     -218.997     -80.545    -104.454
  H     -223.597     -83.858    -107.026
  H     -224.803     -82.982    -103.098
  H     -222.421     -83.089    -102.442
  H     -219.718     -83.989    -104.787
  H     -220.478     -81.581    -103.026
  H     -218.228     -81.726    -102.141
  H     -218.244     -84.519    -102.003
  H     -218.752     -82.924    -100.090
  H     -220.436     -82.888    -100.628
  P     -216.339     -81.853    -104.011
  C     -215.901     -80.345    -106.104
  O     -216.823     -81.069    -105.320
  O     -215.195     -82.826    -104.581
  O     -215.876     -81.022    -102.863
  H     -215.528     -83.463    -105.229
  H     -216.335     -80.176    -107.094
  H     -214.961     -80.887    -106.227
  H     -215.706     -79.375    -105.639
  H     -221.634     -88.180     -99.021
  H     -220.924     -87.171    -100.259
  H     -222.539     -86.839     -99.681

 3  4  5  6  7  8  9  10  11  12  13  24  28  29  30  31  32 0
 6-311+G(2d,p)
 ****
 33  34 0
 6-311+G(2d,p)
 ****
 1  2  14  15  16  17  18  19  20  21  22  23  25  26  27 0
 3-21G
 ****
 35  36  37  38  39  40  41  42  43  44  45 0
 3-21G
 ****


