%nproc=1
%NoSave
%Mem=1900MB
#P OB98/GEN NMR

erre ene a

0 1
  C      237.057     866.755     369.203
  O      236.541     868.088     369.296
  P      236.034     868.565     370.755
  C      236.586     871.112     370.626
  O      235.585     870.094     370.626
  C      236.001     872.445     370.189
  O      235.620     872.418     368.800
  C      234.724     872.846     370.938
  O      235.027     873.400     372.216
  C      234.163     873.905     370.008
  O      234.822     875.183     370.271
  C      234.561     873.382     368.604
  N      230.228     874.078     366.090
  C      231.073     874.998     366.645
  N      230.742     876.316     366.466
  N      232.172     874.692     367.286
  C      232.390     873.356     367.360
  C      231.606     872.335     366.840
  C      230.404     872.699     366.144
  O      229.590     871.919     365.660
  N      232.166     871.109     367.089
  C      233.286     871.370     367.732
  N      233.469     872.732     367.933
  O      237.403     868.659     371.595
  O      235.047     867.632     371.388
  H      234.305     875.872     369.792
  H      237.232     868.519     372.542
  H      229.398     874.380     365.583
  H      234.001     870.644     368.072
  H      234.948     874.191     367.978
  H      233.092     874.073     370.142
  H      229.966     876.623     365.920
  H      234.036     872.011     370.995
  H      231.387     876.998     366.840
  H      236.774     873.214     370.328
  H      237.396     870.832     369.962
  H      237.014     871.165     371.637
  P      234.897     872.410     373.487
  C      236.721     873.778     374.754
  O      235.400     873.276     374.732
  O      236.086     871.372     373.242
  O      233.585     871.742     373.618
  H      235.881     870.518     373.646
  H      236.994     874.180     373.760
  H      237.407     872.971     375.018
  H      236.794     874.581     375.491
  H      237.358     866.559     368.195
  H      236.298     866.058     369.491
  H      237.901     866.653     369.853

 3  4  5  6  7  8  9  10  11  12  23  26  30  31  33  0
 6-311+G(2d,p)
 ****
 35  36  37  38 0
 6-311+G(2d,p)
 ****
 1  2  13  14  15  16  17  18  19  20  21  22  24  25  27  28  29 0
 3-21G
 ****
 32  34  39  40  41  42  43  44  45  46  47  48  49 0
 3-21G
 ****


