%nproc=1
%NoSave
%Mem=1900MB
#P OB98/GEN NMR

erre ene a

0 1
  C       35.300    -466.719     169.579
  O       35.140    -468.111     169.752
  H       36.186    -466.395     170.146
  H       34.431    -466.191     169.977
  H       35.444    -466.470     168.527
  P       33.996    -468.870     168.925
  C       32.950    -470.324     170.784
  O       32.797    -469.188     169.947
  C       31.586    -470.860     171.229
  O       31.774    -472.169     171.826
  C       30.874    -469.978     172.257
  O       29.471    -469.980     171.992
  C       31.160    -470.664     173.576
  O       30.161    -470.388     174.557
  C       31.210    -472.138     173.155
  N       32.118    -476.824     174.828
  C       31.292    -476.382     173.799
  N       30.592    -477.333     173.135
  N       31.162    -475.130     173.469
  C       31.944    -474.295     174.200
  C       32.804    -474.603     175.229
  C       32.920    -475.998     175.606
  O       33.620    -476.447     176.508
  N       33.400    -473.473     175.737
  C       32.900    -472.486     175.014
  N       32.009    -472.932     174.076
  O       34.472    -470.052     168.132
  O       33.377    -467.743     167.979
  H       29.293    -470.605     174.154
  H       33.679    -467.852     167.055
  H       32.170    -477.800     175.038
  H       33.152    -471.440     175.139
  H       30.210    -472.594     173.113
  H       32.128    -470.328     173.971
  H       30.662    -478.324     173.331
  H       31.245    -468.943     172.238
  H       29.995    -477.040     172.367
  H       30.961    -471.008     170.340
  H       33.533    -470.025     171.662
  H       33.502    -471.104     170.238
  P       28.648    -468.609     172.100
  C       29.160    -468.049     174.568
  O       29.349    -467.668     173.214
  O       27.168    -468.754     172.256
  O       29.015    -467.866     170.731
  H       28.237    -467.353     170.435
  H       29.666    -467.356     175.207
  H       29.556    -469.031     174.721
  H       28.115    -468.047     174.797

 6  7  8  9  10  11  12  13  14  15  26  29  33  34 0
 6-311+G(2d,p)
 ****
 36  38  39  40  41 0
 6-311+G(2d,p)
 ****
 1  2  3  4  5  16  17  18  19  20  21  22  23  24  25 0
 3-21G
 ****
 27  28  30  31  32  35  37  42  43  44  45  46  47 0
 3-21G
 ****
 48  49 0
 3-21G
 ****


