%nproc=1
%NoSave
%Mem=1900MB
#P OB98/GEN NMR

erre ene a

0 1
  C      108.402    -149.207     -65.631
  O      107.451    -149.145     -66.675
  H      108.410    -150.221     -65.220
  H      108.133    -148.506     -64.836
  H      109.399    -148.971     -66.013
  P      107.248    -147.713     -67.369
  C      105.044    -147.445     -66.032
  O      105.675    -147.400     -67.305
  C      103.566    -147.074     -66.157
  O      102.879    -147.290     -64.905
  C      103.311    -145.622     -66.554
  O      103.400    -145.454     -67.957
  C      101.901    -145.417     -66.023
  O      100.920    -145.972     -66.930
  C      101.931    -146.207     -64.710
  N      100.439    -142.583     -61.522
  C       99.830    -143.076     -62.656
  N       98.663    -142.498     -63.020
  N      100.326    -144.043     -63.388
  C      101.526    -144.484     -62.941
  C      102.230    -144.077     -61.831
  C      101.643    -143.047     -61.001
  O      102.090    -142.627     -59.939
  N      103.402    -144.778     -61.702
  C      103.419    -145.584     -62.749
  N      102.306    -145.436     -63.535
  O      107.498    -148.011     -68.927
  O      108.147    -146.629     -66.880
  H      100.142    -146.259     -66.419
  H      107.971    -147.253     -69.318
  H       99.995    -141.860     -60.980
  H      104.204    -146.293     -62.974
  H      100.961    -146.665     -64.481
  H      101.659    -144.357     -65.923
  H       98.386    -141.586     -62.682
  H      103.999    -144.945     -66.028
  H       98.257    -142.809     -63.894
  H      103.118    -147.757     -66.892
  H      105.541    -146.732     -65.364
  H      105.138    -148.453     -65.618
  P      104.280    -144.242     -68.523
  C      102.386    -142.468     -68.419
  O      103.287    -143.203     -69.238
  O      105.067    -144.911     -69.748
  O      105.229    -143.649     -67.538
  H      105.999    -145.062     -69.502
  H      101.793    -141.821     -69.032
  H      102.940    -141.883     -67.715
  H      101.747    -143.147     -67.894

 6  7  8  9  10  11  12  13  14  15  26  29  33  34 0
 6-311+G(2d,p)
 ****
 36  38  39  40  41 0
 6-311+G(2d,p)
 ****
 1  2  3  4  5  16  17  18  19  20  21  22  23  24  25 0
 3-21G
 ****
 27  28  30  31  32  35  37  42  43  44  45  46  47 0
 3-21G
 ****
 48  49 0
 3-21G
 ****


