%nproc=1
%NoSave
%Mem=1900MB
#P OB98/GEN NMR

erre ene a

0 1
  C      441.679     242.790     242.995
  O      442.803     242.408     243.771
  P      444.228     243.029     243.366
  C      446.158     242.339     241.768
  O      444.872     242.021     242.295
  C      447.246     241.471     242.402
  O      447.471     241.917     243.761
  C      446.915     239.978     242.444
  O      448.120     239.254     242.209
  C      446.473     239.754     243.874
  O      446.645     238.395     244.273
  C      447.353     240.768     244.623
  N      446.796     241.127     245.923
  C      446.547     240.079     246.816
  O      446.723     238.913     246.462
  N      446.058     240.376     248.064
  C      445.743     241.597     248.359
  N      445.268     241.838     249.607
  C      445.876     242.716     247.401
  C      446.423     242.415     246.226
  O      445.109     242.786     244.678
  O      444.188     244.467     242.967
  H      447.600     238.245     244.446
  H      445.768     243.496     244.791
  H      445.564     243.711     247.683
  H      446.579     243.173     245.469
  H      448.363     240.360     244.776
  H      445.411     240.012     243.986
  H      446.163     239.692     241.699
  H      448.181     241.638     241.850
  H      445.173     241.056     250.240
  H      446.383     243.385     241.989
  H      444.995     242.761     249.924
  H      446.147     242.213     240.683
  P      447.997     237.769     241.612
  C      448.645     235.633     242.884
  O      447.870     236.817     242.897
  O      449.509     237.484     241.154
  O      447.037     237.535     240.496
  H      449.556     236.619     240.706
  H      448.569     235.155     243.864
  H      449.689     235.861     242.677
  H      448.252     234.944     242.125
  H      440.803     242.305     243.373
  H      441.834     242.502     241.976
  H      441.552     243.851     243.050

 3  4  5  6  7  8  9  10  11  12  13  21  23  27  28  29  30  32 0
 6-311+G(2d,p)
 ****
 34  35 0
 6-311+G(2d,p)
 ****
 1  2  14  15  16  17  18  19  20  22  24  25  26 0
 3-21G
 ****
 31  33  36  37  38  39  40  41  42  43  44  45  46 0
 3-21G
 ****


