%nproc=1
%NoSave
%Mem=1900MB
#P OB98/GEN NMR

erre ene a

0 1
  C      159.966     332.957    -466.052
  O      161.170     332.210    -466.062
  P      161.905     331.804    -464.693
  C      160.560     329.607    -464.476
  O      161.841     330.204    -464.647
  C      160.632     328.120    -464.815
  O      160.758     327.955    -466.243
  C      161.822     327.388    -464.206
  O      161.607     327.129    -462.827
  C      161.891     326.157    -465.102
  O      160.908     325.189    -464.699
  C      161.515     326.743    -466.477
  N      162.677     327.003    -467.319
  C      163.159     325.924    -468.066
  O      162.619     324.818    -468.009
  N      164.238     326.125    -468.890
  C      164.797     327.295    -468.954
  N      165.817     327.452    -469.842
  C      164.354     328.443    -468.148
  C      163.298     328.231    -467.364
  O      161.378     332.482    -463.473
  O      163.453     332.082    -464.968
  H      161.036     324.402    -465.265
  H      163.730     333.003    -464.754
  H      164.861     329.396    -468.225
  H      162.895     329.031    -466.754
  H      160.838     326.061    -467.008
  H      162.869     325.664    -465.090
  H      162.734     327.981    -464.324
  H      159.690     327.651    -464.498
  H      165.970     326.692    -470.495
  H      159.854     330.096    -465.152
  H      166.107     328.370    -470.157
  H      160.227     329.761    -463.446
  P      162.898     326.833    -461.923
  C      163.201     329.048    -460.615
  O      162.718     327.718    -460.593
  O      164.083     327.545    -462.725
  O      163.164     325.380    -461.689
  H      164.597     326.883    -463.230
  H      162.800     329.575    -459.749
  H      162.876     329.567    -461.522
  H      164.291     329.052    -460.550
  H      159.640     333.122    -467.058
  H      160.134     333.899    -465.572
  H      159.214     332.414    -465.518

 3  4  5  6  7  8  9  10  11  12  13  23  27  28  29  30  32 0
 6-311+G(2d,p)
 ****
 34  35 0
 6-311+G(2d,p)
 ****
 1  2  14  15  16  17  18  19  20  21  22  24  25  26 0
 3-21G
 ****
 31  33  36  37  38  39  40  41  42  43  44  45  46 0
 3-21G
 ****


