%nproc=1
%NoSave
%Mem=1900MB
#P OB98/GEN NMR

erre ene a

0 1
  C       84.599     339.986     -29.118
  O       83.500     340.301     -29.957
  P       82.943     341.808     -29.915
  C       81.441     341.774     -27.795
  O       81.500     341.756     -29.215
  C       80.004     341.968     -27.309
  O       80.000     342.011     -25.854
  C       79.333     343.262     -27.805
  O       77.944     342.958     -27.999
  C       79.536     344.198     -26.625
  O       78.688     345.336     -26.639
  C       79.319     343.228     -25.470
  N       78.167     344.248     -20.593
  C       77.448     343.684     -21.589
  N       77.824     343.434     -22.862
  C       79.097     343.823     -23.065
  C       79.946     344.432     -22.152
  C       79.435     344.641     -20.860
  N       80.168     345.225     -19.847
  N       81.166     344.713     -22.732
  C       81.054     344.289     -23.974
  N       79.833     343.725     -24.214
  O       82.597     342.106     -31.447
  O       83.893     342.820     -29.348
  H       78.773     345.802     -27.491
  H       82.826     343.022     -31.692
  H       76.432     343.392     -21.327
  H       81.820     344.373     -24.732
  H       78.256     342.984     -25.328
  H       80.565     344.568     -26.636
  H       79.750     343.636     -28.747
  H       79.416     341.096     -27.611
  H       82.047     342.606     -27.420
  H       79.654     345.513     -19.027
  H       81.028     345.698     -20.113
  H       81.869     340.846     -27.402
  P       77.328     343.055     -29.475
  C       77.878     345.558     -29.656
  O       76.851     344.581     -29.597
  O       75.932     342.296     -29.270
  O       78.174     342.511     -30.574
  H       75.443     342.645     -28.502
  H       77.417     346.535     -29.835
  H       78.568     345.336     -30.473
  H       78.414     345.590     -28.705
  H       84.863     338.957     -29.247
  H       84.330     340.160     -28.097
  H       85.434     340.603     -29.377

 3  4  5  6  7  8  9  10  11  12  22  25  29  30  31  32 0
 6-311+G(2d,p)
 ****
 33  36  37 0
 6-311+G(2d,p)
 ****
 1  2  13  14  15  16  17  18  19  20  21  23  24  26 0
 3-21G
 ****
 27  28  34  35  38  39  40  41  42  43  44  45  46  47  48 0
 3-21G
 ****


