%nproc=1
%NoSave
%Mem=1900MB
#P OB98/GEN NMR

erre ene a

0 1
  C      174.354      93.302     110.275
  O      174.657      93.686     108.942
  P      174.754      95.249     108.599
  C      172.289      95.526     107.724
  O      173.264      95.839     108.706
  C      171.261      96.658     107.613
  O      170.359      96.367     106.511
  C      170.399      96.858     108.871
  O      170.143      98.265     108.991
  C      169.123      96.110     108.527
  O      168.008      96.545     109.289
  C      169.010      96.411     107.027
  N      168.157      95.465     106.304
  C      166.802      95.768     106.184
  O      166.279      96.777     106.672
  N      166.044      94.848     105.504
  C      166.476      93.661     104.999
  O      165.749      92.870     104.414
  C      167.904      93.371     105.193
  C      168.670      94.272     105.819
  O      175.047      95.203     107.026
  O      175.772      95.979     109.410
  H      174.584      94.478     106.577
  H      167.215      96.096     108.949
  H      165.065      95.071     105.375
  H      168.284      92.423     104.823
  H      169.725      94.080     105.974
  H      168.641      97.431     106.873
  H      169.267      95.039     108.712
  H      170.889      96.488     109.781
  H      171.795      97.585     107.365
  H      171.779      94.603     108.004
  H      172.789      95.359     106.761
  P      169.595      98.817     110.401
  C      167.117      98.483     109.612
  O      168.105      98.255     110.590
  O      169.345     100.362     110.019
  O      170.532      98.650     111.554
  H      168.852     100.469     109.189
  H      166.305      97.760     109.752
  H      167.519      98.362     108.602
  H      166.709      99.491     109.727
  H      174.325      92.234     110.341
  H      173.402      93.702     110.554
  H      175.107      93.680     110.935

 3  4  5  6  7  8  9  10  11  12  13  24  28  29  30  31  32 0
 6-311+G(2d,p)
 ****
 33  34 0
 6-311+G(2d,p)
 ****
 1  2  14  15  16  17  18  19  20  21  22  23  25  26  27 0
 3-21G
 ****
 35  36  37  38  39  40  41  42  43  44  45 0
 3-21G
 ****


