%nproc=1
%NoSave
%Mem=1900MB
#P OB98/GEN NMR

erre ene a

0 1
  C      226.724    -111.990    -363.783
  O      225.641    -111.090    -364.016
  P      226.042    -109.655    -364.623
  C      226.825    -107.373    -363.670
  O      226.285    -108.655    -363.389
  C      226.511    -106.386    -362.538
  O      225.070    -106.171    -362.419
  C      227.010    -106.846    -361.160
  O      227.414    -105.669    -360.449
  C      225.755    -107.442    -360.547
  O      225.842    -107.614    -359.142
  C      224.724    -106.431    -361.040
  N      221.128    -108.010    -357.780
  C      222.411    -107.620    -357.594
  N      223.308    -107.219    -358.519
  C      222.757    -107.234    -359.746
  C      221.469    -107.607    -360.096
  C      220.628    -108.012    -359.041
  N      219.328    -108.430    -359.219
  N      221.281    -107.510    -361.463
  C      222.469    -107.154    -361.938
  N      223.360    -106.899    -360.930
  O      224.680    -109.133    -365.280
  O      227.165    -109.714    -365.608
  H      224.967    -107.882    -358.786
  H      224.688    -109.288    -366.243
  H      222.764    -107.646    -356.566
  H      222.727    -107.070    -362.975
  H      224.784    -105.481    -360.498
  H      225.575    -108.429    -360.990
  H      227.857    -107.545    -361.213
  H      226.963    -105.413    -362.795
  H      226.407    -106.988    -364.607
  H      218.808    -108.704    -358.407
  H      218.925    -108.453    -360.142
  H      227.904    -107.466    -363.827
  P      228.982    -105.405    -360.217
  C      230.741    -106.381    -358.619
  O      229.367    -106.340    -358.968
  O      228.933    -103.959    -359.523
  O      229.849    -105.473    -361.427
  H      228.297    -103.943    -358.789
  H      230.852    -106.979    -357.710
  H      231.112    -105.370    -358.425
  H      231.311    -106.848    -359.424
  H      226.346    -112.907    -363.382
  H      227.409    -111.552    -363.087
  H      227.230    -112.186    -364.705

 3  4  5  6  7  8  9  10  11  12  22  25  29  30  31  32 0
 6-311+G(2d,p)
 ****
 33  36  37 0
 6-311+G(2d,p)
 ****
 1  2  13  14  15  16  17  18  19  20  21  23  24  26 0
 3-21G
 ****
 27  28  34  35  38  39  40  41  42  43  44  45  46  47  48 0
 3-21G
 ****


