%nproc=1
%NoSave
%Mem=1900MB
#P OB98/GEN NMR

erre ene a

0 1
  C      256.371    -648.283    -791.987
  O      257.355    -647.329    -792.324
  H      256.782    -649.025    -791.292
  H      255.534    -647.775    -791.507
  H      256.007    -648.778    -792.896
  P      258.713    -647.895    -792.946
  C      257.914    -648.363    -795.377
  O      258.689    -647.530    -794.522
  C      257.189    -647.515    -796.418
  O      256.354    -646.532    -795.769
  C      258.105    -646.716    -797.344
  O      258.655    -647.517    -798.374
  C      257.119    -645.695    -797.895
  O      256.342    -646.282    -798.947
  C      256.212    -645.405    -796.671
  N      254.493    -640.904    -794.925
  C      253.873    -641.901    -795.607
  N      254.397    -643.055    -796.043
  C      255.708    -643.170    -795.700
  C      256.452    -642.224    -795.020
  C      255.810    -641.039    -794.633
  N      256.441    -640.023    -793.946
  N      257.749    -642.681    -794.843
  C      257.780    -643.855    -795.430
  N      256.565    -644.188    -795.971
  O      258.500    -649.490    -792.939
  O      259.966    -647.524    -792.220
  H      256.960    -646.781    -799.513
  H      259.351    -649.926    -792.744
  H      252.818    -641.752    -795.803
  H      258.645    -644.512    -795.463
  H      255.152    -645.357    -796.969
  H      257.605    -644.811    -798.299
  H      258.889    -646.206    -796.771
  H      256.541    -648.194    -796.996
  H      257.171    -648.909    -794.781
  H      255.889    -639.308    -793.515
  H      257.427    -640.152    -793.721
  H      258.570    -649.087    -795.863
  P      259.762    -646.864    -799.333
  C      261.835    -646.525    -797.792
  O      261.186    -647.344    -798.768
  O      259.712    -645.318    -798.911
  O      259.526    -647.056    -800.784
  H      260.014    -644.747    -799.657
  H      262.767    -646.972    -797.514
  H      261.210    -646.437    -796.928
  H      262.014    -645.554    -798.204

 6  7  8  9  10  11  12  13  14  15  25  28  32  33  34  35 0
 6-311+G(2d,p)
 ****
 36  39  40 0
 6-311+G(2d,p)
 ****
 1  2  3  4  5  16  17  18  19  20  21  22  23  24 0
 3-21G
 ****
 26  27  29  30  31  37  38  41  42  43  44  45  46  47  48 0
 3-21G
 ****


