%nproc=1
%NoSave
%Mem=1900MB
#P OB98/GEN NMR

erre ene a

0 1
  C     -406.653    -192.357     301.227
  O     -406.452    -191.196     302.005
  H     -405.931    -192.355     300.407
  H     -407.663    -192.347     300.807
  H     -406.508    -193.266     301.818
  P     -407.048    -191.154     303.490
  C     -409.376    -190.240     302.854
  O     -408.154    -189.992     303.540
  C     -410.402    -189.131     303.099
  O     -410.891    -189.193     304.457
  C     -409.799    -187.734     302.931
  O     -409.751    -187.249     301.600
  C     -410.735    -186.886     303.790
  O     -411.893    -186.483     303.040
  C     -411.131    -187.850     304.911
  N     -411.119    -185.682     309.540
  C     -412.077    -185.608     308.547
  N     -413.138    -184.810     308.800
  N     -411.988    -186.247     307.410
  C     -410.827    -186.929     307.262
  C     -409.799    -187.063     308.164
  C     -409.930    -186.397     309.446
  O     -409.109    -186.427     310.355
  N     -408.783    -187.841     307.660
  C     -409.163    -188.110     306.428
  N     -410.410    -187.602     306.147
  O     -405.851    -190.531     304.359
  O     -407.482    -192.477     304.046
  H     -412.394    -187.285     302.799
  H     -405.921    -190.827     305.284
  H     -411.251    -185.193     310.406
  H     -408.588    -188.688     305.710
  H     -412.200    -187.778     305.144
  H     -410.247    -185.973     304.138
  H     -413.192    -184.210     309.610
  H     -408.798    -187.695     303.376
  H     -413.717    -184.523     308.009
  H     -411.261    -189.280     302.434
  H     -409.759    -191.189     303.229
  H     -409.192    -190.361     301.784
  P     -408.382    -186.661     301.013
  C     -408.972    -184.127     301.101
  O     -408.738    -185.268     300.304
  O     -408.075    -187.646     299.790
  O     -407.252    -186.609     301.980
  H     -407.448    -188.340     300.063
  H     -409.194    -183.291     300.471
  H     -408.100    -183.913     301.683
  H     -409.800    -184.311     301.754

 6  7  8  9  10  11  12  13  14  15  26  29  33  34 0
 6-311+G(2d,p)
 ****
 36  38  39  40  41 0
 6-311+G(2d,p)
 ****
 1  2  3  4  5  16  17  18  19  20  21  22  23  24  25 0
 3-21G
 ****
 27  28  30  31  32  35  37  42  43  44  45  46  47 0
 3-21G
 ****
 48  49 0
 3-21G
 ****


