%nproc=1
%NoSave
%Mem=1900MB
#P OB98/GEN NMR

erre ene a

0 1
  C      -80.343       1.459     -62.129
  O      -80.392       2.413     -61.089
  H      -80.079       1.940     -63.075
  H      -79.581       0.714     -61.886
  H      -81.311       0.957     -62.223
  P      -81.381       3.657     -61.310
  C      -79.911       4.790     -63.117
  O      -81.147       4.162     -62.815
  C      -80.143       6.015     -63.993
  O      -80.972       5.672     -65.122
  C      -80.863       7.167     -63.300
  O      -79.988       7.918     -62.471
  C      -81.325       7.974     -64.505
  O      -80.236       8.778     -64.996
  C      -81.671       6.879     -65.526
  N      -86.205       8.460     -67.346
  C      -84.962       8.987     -67.438
  N      -83.808       8.520     -66.921
  C      -84.013       7.370     -66.258
  C      -85.219       6.714     -66.080
  C      -86.356       7.308     -66.654
  N      -87.620       6.771     -66.540
  N      -85.042       5.555     -65.356
  C      -83.751       5.509     -65.099
  N      -83.087       6.590     -65.618
  O      -80.724       4.820     -60.424
  O      -82.804       3.418     -60.927
  H      -80.562       9.231     -65.796
  H      -81.435       5.363     -60.036
  H      -84.885       9.910     -68.008
  H      -83.257       4.718     -64.549
  H      -81.309       7.135     -66.528
  H      -82.153       8.649     -64.278
  H      -81.738       6.811     -62.745
  H      -79.169       6.343     -64.380
  H      -79.265       4.085     -63.652
  H      -88.351       7.128     -67.131
  H      -87.722       5.902     -66.026
  H      -79.423       5.078     -62.181
  P      -80.597       8.530     -61.116
  C      -80.658      10.766     -62.432
  O      -81.344       9.881     -61.553
  O      -79.300       9.061     -60.344
  O      -81.386       7.576     -60.288
  H      -79.473       9.085     -59.382
  H      -81.274      11.617     -62.634
  H      -80.438      10.259     -63.348
  H      -79.746      11.087     -61.974

 6  7  8  9  10  11  12  13  14  15  25  28  32  33  34  35 0
 6-311+G(2d,p)
 ****
 36  39  40 0
 6-311+G(2d,p)
 ****
 1  2  3  4  5  16  17  18  19  20  21  22  23  24 0
 3-21G
 ****
 26  27  29  30  31  37  38  41  42  43  44  45  46  47  48 0
 3-21G
 ****


