%nproc=1
%NoSave
%Mem=1900MB
#P OB98/GEN NMR

erre ene a

0 1
  C      -39.533    -210.493    -240.459
  O      -40.719    -211.026    -241.046
  P      -41.863    -210.017    -241.545
  C      -43.214    -211.614    -243.036
  O      -43.201    -210.855    -241.836
  C      -42.649    -213.028    -242.839
  O      -43.457    -213.782    -241.896
  C      -42.563    -213.858    -244.128
  O      -41.385    -214.666    -244.029
  C      -43.811    -214.715    -244.046
  O      -43.750    -215.848    -244.897
  C      -43.843    -215.010    -242.544
  N      -45.146    -215.469    -242.092
  C      -45.274    -216.824    -241.781
  O      -44.336    -217.594    -241.991
  N      -46.469    -217.271    -241.270
  C      -47.485    -216.467    -241.224
  N      -48.645    -216.941    -240.694
  C      -47.435    -215.076    -241.714
  C      -46.241    -214.643    -242.106
  O      -41.458    -209.077    -242.632
  O      -42.237    -209.216    -240.205
  H      -43.851    -215.554    -245.828
  H      -42.464    -208.294    -240.442
  H      -48.329    -214.470    -241.731
  H      -46.100    -213.637    -242.476
  H      -43.095    -215.768    -242.279
  H      -44.685    -214.120    -244.338
  H      -42.503    -213.249    -245.036
  H      -41.647    -212.931    -242.402
  H      -48.670    -217.905    -240.384
  H      -42.622    -211.095    -243.795
  H      -49.466    -216.362    -240.574
  H      -44.238    -211.652    -243.424
  P      -40.030    -214.156    -244.721
  C      -38.171    -214.956    -243.091
  O      -38.855    -215.161    -244.309
  O      -39.683    -212.859    -243.835
  O      -40.130    -213.777    -246.163
  H      -39.136    -212.251    -244.369
  H      -37.620    -215.867    -242.841
  H      -38.867    -214.740    -242.276
  H      -37.460    -214.132    -243.199
  H      -38.880    -211.295    -240.184
  H      -39.789    -209.927    -239.588
  H      -39.040    -209.858    -241.165

 3  4  5  6  7  8  9  10  11  12  13  23  27  28  29  30  32 0
 6-311+G(2d,p)
 ****
 34  35 0
 6-311+G(2d,p)
 ****
 1  2  14  15  16  17  18  19  20  21  22  24  25  26 0
 3-21G
 ****
 31  33  36  37  38  39  40  41  42  43  44  45  46 0
 3-21G
 ****


