%nproc=1
%NoSave
%Mem=1900MB
#P OB98/GEN NMR

erre ene a

0 1
  C     -915.844      94.028    -891.750
  O     -916.812      93.381    -892.580
  P     -916.479      93.293    -894.140
  C     -917.911      91.278    -894.960
  O     -916.616      91.753    -894.600
  C     -918.129      89.889    -894.380
  O     -918.111      89.893    -892.930
  C     -919.480      89.284    -894.760
  O     -919.475      88.835    -896.110
  C     -919.584      88.165    -893.720
  O     -918.799      87.030    -894.110
  C     -918.971      88.827    -892.480
  N     -922.965      87.648    -889.510
  C     -922.198      86.900    -890.320
  N     -921.157      87.287    -891.080
  C     -920.925      88.601    -890.940
  C     -921.627      89.499    -890.150
  C     -922.698      88.976    -889.400
  N     -923.499      89.740    -888.590
  N     -921.098      90.763    -890.260
  C     -920.102      90.646    -891.120
  N     -919.956      89.348    -891.550
  O     -914.900      93.564    -894.200
  O     -917.235      94.279    -894.970
  H     -917.868      87.306    -894.130
  H     -914.722      94.446    -894.570
  H     -922.444      85.841    -890.360
  H     -919.476      91.453    -891.470
  H     -918.344      88.124    -891.900
  H     -920.617      87.813    -893.580
  H     -920.276      90.009    -894.600
  H     -917.322      89.225    -894.730
  H     -918.018      91.254    -896.050
  H     -924.293      89.308    -888.160
  H     -923.352      90.749    -888.570
  H     -918.657      91.985    -894.590
  P     -920.332      89.676    -897.170
  C     -919.053      89.491    -899.390
  O     -919.218      90.228    -898.200
  O     -920.710      90.980    -896.320
  O     -921.471      88.939    -897.780
  H     -919.939      91.335    -895.840
  H     -918.297      89.984    -900.000
  H     -919.989      89.447    -899.940
  H     -918.709      88.477    -899.140
  H     -916.183      94.021    -890.735
  H     -915.714      95.039    -892.076
  H     -914.911      93.508    -891.818

 3  4  5  6  7  8  9  10  11  12  22  25  29  30  31  32 0
 6-311+G(2d,p)
 ****
 33  36  37 0
 6-311+G(2d,p)
 ****
 1  2  13  14  15  16  17  18  19  20  21  23  24  26 0
 3-21G
 ****
 27  28  34  35  38  39  40  41  42  43  44  45  46  47  48 0
 3-21G
 ****


