%nproc=1
%NoSave
%Mem=1900MB
#P OB98/GEN NMR

erre ene a

0 1
  C     -202.711      18.416     -30.323
  O     -203.839      17.646     -29.954
  H     -203.029      19.190     -31.026
  H     -201.965      17.781     -30.810
  H     -202.275      18.895     -29.441
  P     -203.575      16.432     -28.940
  C     -206.091      16.362     -28.312
  O     -204.970      15.647     -28.811
  C     -207.369      15.903     -29.009
  O     -207.540      16.591     -30.268
  C     -207.416      14.411     -29.319
  O     -207.830      13.666     -28.186
  C     -208.432      14.375     -30.451
  O     -209.784      14.425     -29.949
  C     -208.091      15.654     -31.229
  N     -207.680      14.501     -36.127
  C     -208.803      14.686     -35.347
  N     -209.994      14.482     -35.952
  N     -208.764      15.029     -34.088
  C     -207.505      15.168     -33.610
  C     -206.315      15.028     -34.287
  C     -206.374      14.679     -35.690
  O     -205.419      14.565     -36.452
  N     -205.244      15.268     -33.464
  C     -205.785      15.512     -32.285
  N     -207.153      15.447     -32.320
  O     -203.432      17.157     -27.518
  O     -202.386      15.587     -29.246
  H     -210.401      14.220     -30.673
  H     -202.824      16.641     -26.956
  H     -207.775      14.255     -37.098
  H     -205.232      15.740     -31.385
  H     -208.983      16.122     -31.663
  H     -208.352      13.458     -31.036
  H     -210.075      13.909     -36.781
  H     -206.445      14.061     -29.690
  H     -210.823      14.592     -35.381
  H     -208.213      16.188     -28.367
  H     -205.943      17.431     -28.499
  H     -206.171      16.197     -27.232
  P     -207.718      12.065     -28.264
  C     -207.174      11.516     -25.781
  O     -208.143      11.511     -26.821
  O     -206.140      11.808     -28.306
  O     -208.421      11.449     -29.427
  H     -205.958      10.903     -28.627
  H     -207.608      11.119     -24.887
  H     -206.847      12.519     -25.603
  H     -206.338      10.914     -26.070

 6  7  8  9  10  11  12  13  14  15  26  29  33  34 0
 6-311+G(2d,p)
 ****
 36  38  39  40  41 0
 6-311+G(2d,p)
 ****
 1  2  3  4  5  16  17  18  19  20  21  22  23  24  25 0
 3-21G
 ****
 27  28  30  31  32  35  37  42  43  44  45  46  47 0
 3-21G
 ****
 48  49 0
 3-21G
 ****


