%nproc=1
%NoSave
%Mem=1900MB
#P OB98/GEN NMR

erre ene a

0 1
  C     -270.203     227.397     -64.213
  O     -270.523     227.712     -65.550
  H     -269.387     228.054     -63.883
  H     -269.871     226.361     -64.133
  H     -271.074     227.564     -63.572
  P     -271.626     226.793     -66.270
  C     -273.201     228.728     -67.004
  O     -273.023     227.585     -66.180
  C     -274.371     229.555     -66.467
  O     -274.047     230.055     -65.149
  C     -274.681     230.791     -67.296
  O     -275.437     230.499     -68.459
  C     -275.475     231.617     -66.296
  O     -276.863     231.244     -66.275
  C     -274.792     231.280     -64.962
  N     -273.939     232.366     -64.503
  C     -274.598     233.445     -63.907
  O     -275.818     233.496     -63.777
  N     -273.800     234.489     -63.517
  C     -272.457     234.576     -63.689
  O     -271.810     235.567     -63.360
  C     -271.813     233.422     -64.330
  C     -272.563     232.383     -64.708
  O     -271.803     225.577     -65.248
  O     -271.257     226.328     -67.645
  H     -271.377     224.773     -65.612
  H     -276.877     230.261     -66.270
  H     -274.266     235.282     -63.084
  H     -270.739     233.458     -64.487
  H     -272.128     231.525     -65.187
  H     -275.537     231.079     -64.187
  H     -275.439     232.674     -66.540
  H     -273.760     231.327     -67.542
  H     -275.255     228.905     -66.386
  H     -273.435     228.416     -68.025
  H     -272.278     229.312     -67.015
  P     -274.711     230.692     -69.889
  C     -275.715     228.555     -71.049
  O     -274.580     229.222     -70.514
  O     -273.231     231.064     -69.414
  O     -275.380     231.707     -70.751
  H     -273.018     230.686     -68.533
  H     -275.424     227.593     -71.415
  H     -276.123     229.133     -71.852
  H     -276.453     228.437     -70.283

 6  7  8  9  10  11  12  13  14  15  16  27  31  32  33  34  35 0
 6-311+G(2d,p)
 ****
 36  37 0
 6-311+G(2d,p)
 ****
 1  2  3  4  5  17  18  19  20  21  22  23  24  25 0
 3-21G
 ****
 26  28  29  30  38  39  40  41  42  43  44  45 0
 3-21G
 ****


