%nproc=1
%NoSave
%Mem=1900MB
#P OB98/GEN NMR

erre ene a

0 1
  C      228.904    -400.344    -144.209
  O      229.367    -399.822    -142.978
  P      230.761    -399.020    -143.000
  C      233.193    -399.697    -143.624
  O      231.899    -400.128    -143.216
  C      234.266    -400.300    -142.722
  O      233.984    -399.988    -141.347
  C      234.345    -401.814    -142.795
  O      235.030    -402.224    -143.964
  C      235.097    -402.137    -141.504
  O      236.516    -402.060    -141.695
  C      234.609    -401.022    -140.548
  N      233.713    -401.515    -139.516
  C      234.283    -402.381    -138.576
  O      235.473    -402.693    -138.664
  N      233.488    -402.896    -137.586
  C      232.226    -402.582    -137.545
  N      231.485    -403.123    -136.537
  C      231.582    -401.691    -138.531
  C      232.376    -401.206    -139.483
  O      230.944    -398.584    -141.473
  O      230.799    -397.856    -143.931
  H      236.914    -402.238    -140.819
  H      231.493    -397.777    -141.404
  H      230.527    -401.461    -138.452
  H      231.980    -400.544    -140.248
  H      235.468    -400.545    -140.052
  H      234.878    -403.146    -141.139
  H      233.347    -402.261    -142.760
  H      235.232    -399.853    -142.990
  H      231.951    -403.733    -135.882
  H      233.246    -398.609    -143.559
  H      230.500    -402.919    -136.408
  H      233.350    -399.992    -144.670
  P      234.378    -403.408    -144.832
  C      233.879    -405.884    -144.399
  O      234.390    -404.679    -143.857
  O      235.558    -403.759    -145.855
  O      233.090    -403.113    -145.527
  H      235.238    -404.408    -146.514
  H      234.084    -406.699    -143.701
  H      234.361    -406.109    -145.355
  H      232.797    -405.808    -144.532
  H      227.974    -400.850    -144.055
  H      229.625    -401.033    -144.598
  H      228.763    -399.544    -144.905

 3  4  5  6  7  8  9  10  11  12  13  21  23  27  28  29  30  32 0
 6-311+G(2d,p)
 ****
 34  35 0
 6-311+G(2d,p)
 ****
 1  2  14  15  16  17  18  19  20  22  24  25  26 0
 3-21G
 ****
 31  33  36  37  38  39  40  41  42  43  44  45  46 0
 3-21G
 ****


