%nproc=1
%NoSave
%Mem=1900MB
#P OB98/GEN NMR

erre ene a

0 1
  C     1404.484    -640.350    -282.568
  O     1405.480    -639.738    -281.770
  P     1405.101    -638.591    -280.713
  C     1405.742    -638.183    -278.230
  O     1406.075    -638.847    -279.446
  C     1406.735    -638.579    -277.141
  O     1406.676    -640.005    -276.942
  C     1408.194    -638.256    -277.472
  O     1408.463    -636.888    -277.301
  C     1408.917    -639.207    -276.512
  O     1408.943    -638.636    -275.190
  C     1407.989    -640.463    -276.513
  N     1408.499    -641.505    -277.382
  C     1409.043    -642.637    -276.763
  O     1409.092    -642.717    -275.511
  N     1409.502    -643.669    -277.524
  C     1409.418    -643.603    -278.822
  N     1409.822    -644.687    -279.540
  C     1408.898    -642.410    -279.527
  C     1408.442    -641.424    -278.762
  O     1403.630    -638.537    -280.360
  O     1405.675    -637.240    -281.330
  H     1409.523    -639.211    -274.639
  H     1405.036    -636.782    -281.922
  H     1408.877    -642.374    -280.614
  H     1408.034    -640.527    -279.205
  H     1407.859    -640.840    -275.494
  H     1409.946    -639.434    -276.787
  H     1408.432    -638.561    -278.501
  H     1406.436    -638.090    -276.201
  H     1409.997    -645.539    -279.000
  H     1404.744    -638.473    -277.917
  H     1409.537    -644.800    -280.508
  H     1405.763    -637.095    -278.406
  P     1409.898    -636.360    -277.780
  C     1410.726    -634.099    -278.764
  O     1409.650    -634.986    -278.569
  O     1410.337    -637.412    -278.903
  O     1410.913    -636.268    -276.661
  H     1410.973    -638.061    -278.533
  H     1410.450    -633.373    -279.511
  H     1411.622    -634.628    -279.113
  H     1410.935    -633.572    -277.815
  H     1404.936    -641.083    -283.203
  H     1404.002    -639.607    -283.168
  H     1403.761    -640.822    -281.936

 3  4  5  6  7  8  9  10  11  12  13  23  27  28  29  30  32 0
 6-311+G(2d,p)
 ****
 34  35 0
 6-311+G(2d,p)
 ****
 1  2  14  15  16  17  18  19  20  21  22  24  25  26 0
 3-21G
 ****
 31  33  36  37  38  39  40  41  42  43  44  45  46 0
 3-21G
 ****


