%nproc=1
%NoSave
%Mem=1900MB
#P OB98/GEN NMR

erre ene a

0 1
  C      141.965    -869.111     264.907
  O      141.637    -870.479     264.869
  H      141.671    -868.651     263.959
  H      143.050    -868.992     265.028
  H      141.446    -868.611     265.723
  P      141.909    -871.331     266.207
  C      144.467    -871.434     265.801
  O      143.417    -870.999     266.653
  C      145.585    -872.094     266.610
  O      146.246    -871.073     267.421
  C      145.098    -873.202     267.570
  O      146.107    -874.214     267.626
  C      145.066    -872.486     268.913
  O      145.128    -873.396     270.018
  C      146.291    -871.584     268.770
  N      147.303    -870.473     273.577
  C      147.463    -871.660     272.867
  N      147.967    -872.703     273.564
  N      147.151    -871.790     271.615
  C      146.682    -870.653     271.045
  C      146.481    -869.420     271.626
  C      146.805    -869.290     273.032
  O      146.670    -868.273     273.712
  N      145.974    -868.529     270.727
  C      145.864    -869.214     269.594
  N      146.293    -870.505     269.741
  O      142.001    -872.832     265.649
  O      140.878    -871.192     267.275
  H      145.048    -872.878     270.842
  H      141.127    -873.267     265.708
  H      147.544    -870.423     274.546
  H      145.496    -868.819     268.656
  H      147.234    -872.129     268.897
  H      144.147    -871.898     269.003
  H      148.271    -872.658     274.519
  H      144.139    -873.646     267.293
  H      148.128    -873.563     273.053
  H      146.337    -872.486     265.912
  H      144.885    -870.560     265.272
  H      144.075    -872.146     265.065
  P      145.949    -875.492     266.660
  C      144.526    -876.983     268.252
  O      144.580    -876.232     267.041
  O      147.067    -876.492     267.222
  O      146.150    -875.189     265.214
  H      147.369    -877.081     266.510
  H      143.552    -877.412     268.362
  H      144.727    -876.337     269.081
  H      145.258    -877.763     268.221

 6  7  8  9  10  11  12  13  14  15  26  29  33  34 0
 6-311+G(2d,p)
 ****
 36  38  39  40  41 0
 6-311+G(2d,p)
 ****
 1  2  3  4  5  16  17  18  19  20  21  22  23  24  25 0
 3-21G
 ****
 27  28  30  31  32  35  37  42  43  44  45  46  47 0
 3-21G
 ****
 48  49 0
 3-21G
 ****


