%nproc=1
%NoSave
%Mem=1900MB
#P OB98/GEN NMR

erre ene a

0 1
  C     -169.760     193.353     384.917
  O     -170.820     192.464     385.197
  H     -170.117     194.119     384.222
  H     -168.930     192.815     384.449
  H     -169.418     193.839     385.833
  P     -170.520     191.266     386.227
  C     -172.753     190.964     387.529
  O     -171.941     190.542     386.442
  C     -173.544     192.217     387.150
  O     -174.295     191.957     385.939
  C     -174.535     192.657     388.229
  O     -174.481     194.080     388.373
  C     -175.888     192.224     387.692
  O     -176.954     193.022     388.203
  C     -175.671     192.310     386.176
  N     -176.580     191.428     385.447
  C     -177.944     191.722     385.529
  O     -178.336     192.676     386.203
  N     -178.837     190.899     384.890
  C     -178.412     189.837     384.279
  N     -179.346     189.048     383.685
  C     -176.986     189.462     384.208
  C     -176.134     190.297     384.804
  O     -170.272     192.031     387.605
  O     -169.409     190.350     385.830
  H     -177.800     192.654     387.868
  H     -169.869     191.434     388.283
  H     -176.682     188.557     383.699
  H     -175.065     190.100     384.804
  H     -175.822     193.341     385.821
  H     -176.079     191.185     387.984
  H     -174.340     192.201     389.198
  H     -172.834     193.018     386.912
  H     -180.318     189.333     383.766
  H     -172.112     191.182     388.390
  H     -179.132     188.187     383.208
  H     -173.445     190.158     387.796
  P     -173.811     194.624     389.725
  C     -172.899     196.716     388.495
  O     -173.657     196.215     389.586
  O     -172.306     194.085     389.645
  O     -174.514     194.174     390.965
  H     -172.205     193.281     390.187
  H     -172.884     197.785     388.532
  H     -173.344     196.397     387.575
  H     -171.898     196.343     388.555

 6  7  8  9  10  11  12  13  14  15  16  26  30  31  32  33  35 0
 6-311+G(2d,p)
 ****
 37  38 0
 6-311+G(2d,p)
 ****
 1  2  3  4  5  17  18  19  20  21  22  23  24  25 0
 3-21G
 ****
 27  28  29  34  36  39  40  41  42  43  44  45  46 0
 3-21G
 ****


