%nproc=1
%NoSave
%Mem=1900MB
#P OB98/GEN NMR

erre ene a

0 1
  C      -61.302      27.663      79.079
  O      -60.469      28.700      79.558
  H      -62.340      28.008      79.106
  H      -61.214      26.771      79.704
  H      -61.043      27.419      78.045
  P      -58.907      28.400      79.775
  C      -58.903      28.782      82.324
  O      -58.755      27.837      81.272
  C      -57.788      28.618      83.359
  O      -57.907      27.300      83.961
  C      -56.375      28.746      82.771
  O      -55.549      29.421      83.724
  C      -55.949      27.300      82.618
  O      -54.539      27.173      82.599
  C      -56.645      26.623      83.804
  N      -56.816      25.189      83.570
  C      -55.649      24.417      83.543
  O      -54.549      24.946      83.729
  N      -55.741      23.080      83.248
  C      -56.893      22.564      82.944
  N      -56.910      21.242      82.620
  C      -58.149      23.349      82.930
  C      -58.040      24.638      83.254
  O      -57.969      29.508      79.426
  O      -58.644      27.103      78.872
  H      -54.299      26.224      82.521
  H      -58.371      27.369      77.973
  H      -59.082      22.874      82.666
  H      -58.906      25.294      83.259
  H      -56.067      26.763      84.727
  H      -56.335      26.900      81.672
  H      -56.358      29.283      81.815
  H      -57.946      29.351      84.160
  H      -56.021      20.753      82.619
  H      -59.878      28.607      82.801
  H      -57.739      20.743      82.328
  H      -58.888      29.798      81.914
  P      -55.657      31.010      83.921
  C      -53.879      31.972      82.346
  O      -55.273      31.742      82.540
  O      -54.937      31.542      85.124
  O      -57.236      31.272      84.052
  H      -57.385      32.053      84.622
  H      -53.725      32.460      81.406
  H      -53.359      31.037      82.352
  H      -53.507      32.592      83.135

 6  7  8  9  10  11  12  13  14  15  16  26  30  31  32  33  35 0
 6-311+G(2d,p)
 ****
 37  38 0
 6-311+G(2d,p)
 ****
 1  2  3  4  5  17  18  19  20  21  22  23  24  25 0
 3-21G
 ****
 27  28  29  34  36  39  40  41  42  43  44  45  46 0
 3-21G
 ****


