%nproc=1
%NoSave
%Mem=1900MB
#P OB98/GEN NMR

erre ene a

0 1
  C       33.393     -68.408     534.414
  O       34.304     -67.354     534.654
  H       33.896     -69.357     534.623
  H       33.071     -68.405     533.370
  H       32.523     -68.318     535.075
  P       33.839     -65.846     534.358
  C       34.831     -65.640     531.983
  O       34.914     -65.222     533.340
  C       36.201     -66.149     531.500
  O       36.561     -67.287     532.332
  C       36.174     -66.610     530.034
  O       37.194     -65.999     529.238
  C       36.183     -68.131     530.140
  O       36.725     -68.800     529.021
  C       36.919     -68.380     531.464
  N       36.599     -69.668     532.088
  C       36.975     -70.821     531.412
  O       37.578     -70.845     530.340
  N       36.637     -71.999     532.027
  C       35.979     -72.134     533.211
  O       35.706     -73.215     533.721
  C       35.585     -70.872     533.866
  C       35.908     -69.714     533.292
  O       33.554     -65.011     535.559
  O       32.541     -66.022     533.440
  H       37.674     -68.568     528.970
  H       31.735     -65.872     533.976
  H       36.919     -72.841     531.552
  H       35.051     -70.941     534.809
  H       35.629     -68.768     533.745
  H       38.003     -68.351     531.306
  H       35.145     -68.475     530.249
  H       35.249     -66.295     529.541
  H       36.949     -65.369     531.667
  H       34.520     -64.780     531.381
  H       34.085     -66.435     531.885
  P       36.921     -65.038     527.998
  C       38.861     -65.995     526.512
  O       38.284     -64.881     527.171
  O       36.162     -63.787     528.297
  O       36.002     -65.939     527.023
  H       35.387     -65.328     526.562
  H       39.760     -65.691     526.019
  H       38.171     -66.379     525.790
  H       39.087     -66.756     527.229

 6  7  8  9  10  11  12  13  14  15  16  26  31  32  33  34  35 0
 6-311+G(2d,p)
 ****
 36  37 0
 6-311+G(2d,p)
 ****
 1  2  3  4  5  17  18  19  20  21  22  23  24  25 0
 3-21G
 ****
 27  28  29  30  38  39  40  41  42  43  44  45 0
 3-21G
 ****


