%nproc=1
%NoSave
%Mem=1900MB
#P OB98/GEN NMR

erre ene a

0 1
  C     -899.380    -897.480    -756.768
  O     -898.150    -897.160    -757.406
  P     -897.050    -896.330    -756.583
  C     -895.490    -897.180    -758.493
  O     -895.710    -896.210    -757.476
  C     -894.610    -896.670    -759.606
  O     -895.330    -895.710    -760.421
  C     -893.350    -895.920    -759.117
  O     -892.160    -896.690    -758.872
  C     -893.050    -895.010    -760.310
  O     -892.290    -895.750    -761.310
  C     -894.410    -894.660    -760.879
  N     -894.400    -889.660    -761.950
  C     -893.850    -890.720    -762.576
  N     -893.890    -892.030    -762.228
  C     -894.650    -892.160    -761.123
  C     -895.250    -891.200    -760.375
  C     -895.130    -889.880    -760.824
  N     -895.690    -888.790    -760.185
  N     -895.910    -891.760    -759.254
  C     -895.660    -893.030    -759.327
  N     -894.890    -893.340    -760.440
  O     -896.820    -896.770    -755.173
  O     -897.640    -894.840    -756.639
  H     -892.890    -896.440    -761.658
  H     -897.450    -894.400    -755.765
  H     -893.290    -890.510    -763.484
  H     -895.990    -893.780    -758.601
  H     -894.470    -894.680    -761.968
  H     -892.440    -894.170    -760.038
  H     -893.580    -895.300    -758.249
  H     -894.310    -897.490    -760.264
  H     -896.470    -897.460    -758.910
  H     -895.500    -887.870    -760.562
  H     -896.160    -888.950    -759.295
  H     -895.140    -898.080    -758.008
  P     -891.760    -897.130    -757.377
  C     -890.780    -899.280    -758.585
  O     -890.640    -898.270    -757.577
  O     -892.900    -897.550    -756.504
  O     -890.910    -895.890    -756.848
  H     -890.090    -895.750    -757.285
  H     -889.820    -899.800    -758.666
  H     -891.050    -898.840    -759.532
  H     -891.550    -900.000    -758.250
  H     -900.000    -898.031    -757.444
  H     -899.879    -896.578    -756.482
  H     -899.187    -898.072    -755.898

 3  4  5  6  7  8  9  10  11  12  22  25  29  30  31  32 0
 6-311+G(2d,p)
 ****
 33  36  37 0
 6-311+G(2d,p)
 ****
 1  2  13  14  15  16  17  18  19  20  21  23  24  26 0
 3-21G
 ****
 27  28  34  35  38  39  40  41  42  43  44  45  46  47  48 0
 3-21G
 ****


