%nproc=1
%NoSave
%Mem=1900MB
#P OB98/GEN NMR

erre ene a

0 1
  C     -400.831    -212.430     361.434
  O     -401.542    -211.757     360.415
  H     -400.848    -213.509     361.264
  H     -399.790    -212.092     361.424
  H     -401.260    -212.204     362.417
  P     -403.101    -212.108     360.270
  C     -404.802    -211.507     358.401
  O     -403.672    -211.102     359.153
  C     -405.657    -210.285     358.063
  O     -406.280    -209.767     359.256
  C     -404.871    -209.119     357.463
  O     -404.625    -209.297     356.070
  C     -405.836    -207.979     357.716
  O     -406.906    -208.021     356.748
  C     -406.369    -208.316     359.112
  N     -405.910    -204.118     361.991
  C     -406.747    -204.427     360.985
  N     -406.798    -205.565     360.266
  C     -405.864    -206.437     360.680
  C     -404.938    -206.251     361.688
  C     -404.987    -205.024     362.368
  N     -404.121    -204.690     363.396
  N     -404.110    -207.353     361.804
  C     -404.562    -208.204     360.903
  N     -405.618    -207.690     360.183
  O     -403.745    -211.548     361.627
  O     -403.425    -213.547     360.030
  H     -407.495    -207.270     356.944
  H     -404.599    -211.983     361.793
  H     -407.471    -203.663     360.716
  H     -404.166    -209.191     360.727
  H     -407.420    -208.037     359.244
  H     -405.367    -206.993     357.626
  H     -403.942    -208.938     358.016
  H     -406.453    -210.607     357.376
  H     -405.402    -212.209     358.993
  H     -404.118    -203.729     363.685
  H     -403.339    -205.304     363.578
  H     -404.471    -212.004     357.485
  P     -403.505    -208.369     355.398
  C     -402.363    -208.323     353.064
  O     -403.142    -209.052     354.001
  O     -402.207    -208.648     356.303
  O     -403.846    -206.913     355.343
  H     -401.596    -207.884     356.280
  H     -402.210    -208.918     352.188
  H     -401.416    -208.080     353.500
  H     -402.875    -207.422     352.799

 6  7  8  9  10  11  12  13  14  15  25  28  32  33  34  35 0
 6-311+G(2d,p)
 ****
 36  39  40 0
 6-311+G(2d,p)
 ****
 1  2  3  4  5  16  17  18  19  20  21  22  23  24 0
 3-21G
 ****
 26  27  29  30  31  37  38  41  42  43  44  45  46  47 0
 3-21G
 ****
 48 0
 3-21G
 ****


