%nproc=1
%NoSave
%Mem=1900MB
#P OB98/GEN NMR

erre ene a

0 1
  C     -665.709     540.805     203.505
  O     -665.564     539.655     204.306
  P     -664.991     539.694     205.802
  C     -662.586     538.810     205.344
  O     -663.398     539.914     205.732
  C     -661.427     538.541     206.336
  O     -660.719     539.772     206.576
  C     -661.983     538.085     207.682
  O     -662.316     536.724     207.885
  C     -661.030     538.677     208.714
  O     -660.057     537.741     209.177
  C     -660.367     539.833     207.966
  N     -660.456     542.872     212.026
  C     -659.762     541.691     211.845
  N     -659.174     541.175     212.937
  N     -659.677     541.073     210.686
  C     -660.392     541.670     209.704
  C     -661.117     542.842     209.763
  C     -661.167     543.541     211.033
  O     -661.838     544.541     211.262
  N     -661.776     543.099     208.595
  C     -661.499     542.059     207.834
  N     -660.701     541.155     208.476
  O     -665.529     538.674     206.762
  O     -665.508     541.145     206.296
  H     -660.445     537.224     209.912
  H     -665.707     541.068     207.248
  H     -660.569     543.257     212.959
  H     -661.872     541.906     206.817
  H     -659.270     539.734     208.008
  H     -661.588     539.004     209.601
  H     -659.347     541.538     213.863
  H     -662.935     538.618     207.836
  H     -658.804     540.231     212.876
  H     -660.694     537.863     205.896
  H     -662.205     539.013     204.341
  H     -663.207     537.913     205.281
  P     -663.675     536.180     208.542
  C     -663.212     536.498     211.044
  O     -663.927     536.967     209.915
  O     -663.289     534.697     209.054
  O     -664.843     536.132     207.619
  H     -664.108     534.156     209.136
  H     -663.672     536.882     211.947
  H     -662.172     536.860     210.986
  H     -663.208     535.407     211.078
  H     -666.109     540.528     202.552
  H     -664.754     541.268     203.370
  H     -666.374     541.492     203.985

 3  4  5  6  7  8  9  10  11  12  23  26  30  31 0
 6-311+G(2d,p)
 ****
 33  35  36  37  38 0
 6-311+G(2d,p)
 ****
 1  2  13  14  15  16  17  18  19  20  21  22  24  25 0
 3-21G
 ****
 27  28  29  32  34  39  40  41  42  43  44  45  46  47  48  49 0
 3-21G
 ****


