%nproc=1
%NoSave
%Mem=1900MB
#P OB98/GEN NMR

erre ene a

0 1
  C     -637.040     530.603     184.257
  O     -636.498     531.037     185.493
  H     -637.747     531.359     183.900
  H     -637.569     529.653     184.374
  H     -636.239     530.493     183.517
  P     -635.635     529.986     186.346
  C     -637.748     529.660     187.802
  O     -636.704     529.025     187.059
  C     -638.128     528.835     189.037
  O     -638.558     527.519     188.632
  C     -636.974     528.603     190.001
  O     -636.548     529.764     190.678
  C     -637.445     527.395     190.795
  O     -638.273     527.732     191.909
  C     -638.290     526.630     189.740
  N     -637.628     525.407     189.296
  C     -637.959     524.250     189.998
  O     -638.742     524.235     190.949
  N     -637.328     523.101     189.596
  C     -636.377     523.019     188.617
  O     -635.814     521.959     188.335
  C     -636.044     524.273     187.932
  C     -636.674     525.393     188.302
  O     -634.635     530.584     187.296
  O     -634.983     529.040     185.234
  H     -639.041     528.218     191.553
  H     -634.223     528.522     185.608
  H     -637.565     522.254     190.086
  H     -635.289     524.238     187.149
  H     -636.443     526.337     187.801
  H     -639.260     526.348     190.161
  H     -636.606     526.813     191.180
  H     -636.106     528.263     189.416
  H     -638.969     529.330     189.540
  H     -638.623     529.747     187.144
  H     -637.422     530.666     188.100
  P     -635.147     529.866     191.448
  C     -635.626     529.245     193.931
  O     -635.153     528.806     192.660
  O     -634.614     531.245     191.708
  O     -634.154     529.156     190.388
  H     -633.294     529.607     190.457
  H     -635.571     528.437     194.631
  H     -636.642     529.570     193.841
  H     -635.021     530.057     194.276

 6  7  8  9  10  11  12  13  14  15  16  26  31  32  33  34  35 0
 6-311+G(2d,p)
 ****
 36  37 0
 6-311+G(2d,p)
 ****
 1  2  3  4  5  17  18  19  20  21  22  23  24  25 0
 3-21G
 ****
 27  28  29  30  38  39  40  41  42  43  44  45 0
 3-21G
 ****


