%nproc=1
%NoSave
%Mem=1900MB
#P OB98/GEN NMR

erre ene a

0 1
  C      -95.674     -91.811     -16.898
  O      -94.635     -92.680     -16.508
  P      -93.816     -93.595     -17.524
  C      -92.630     -93.222     -19.823
  O      -93.609     -92.782     -18.891
  C      -93.125     -93.045     -21.266
  O      -94.194     -93.996     -21.505
  C      -93.715     -91.643     -21.494
  O      -93.356     -91.057     -22.738
  C      -95.199     -91.851     -21.222
  O      -96.026     -90.846     -21.786
  C      -95.415     -93.267     -21.748
  N     -100.457     -93.837     -21.484
  C      -99.707     -93.149     -22.417
  N     -100.400     -92.370     -23.276
  N      -98.402     -93.197     -22.472
  C      -97.844     -93.926     -21.478
  C      -98.483     -94.652     -20.500
  C      -99.925     -94.617     -20.471
  O     -100.626     -95.121     -19.592
  N      -97.595     -95.213     -19.620
  C      -96.417     -94.800     -20.045
  N      -96.521     -93.987     -21.151
  O      -94.225     -95.029     -17.613
  O      -92.334     -93.549     -16.880
  H      -96.952     -91.080     -21.589
  H      -91.922     -94.420     -17.047
  H     -101.460     -93.697     -21.442
  H      -95.468     -95.030     -19.575
  H      -95.600     -93.270     -22.824
  H      -95.344     -91.810     -20.137
  H     -101.390     -92.200     -23.164
  H      -93.316     -90.936     -20.759
  H      -99.872     -91.674     -23.796
  H      -92.310     -93.276     -21.959
  H      -92.456     -94.282     -19.611
  H      -91.688     -92.690     -19.671
  P      -93.312     -89.514     -23.144
  C      -91.799     -87.516     -22.600
  O      -92.316     -88.753     -22.148
  O      -94.743     -88.934     -22.727
  O      -93.054     -89.256     -24.592
  H      -95.049     -88.301     -23.405
  H      -90.945     -87.244     -21.975
  H      -92.566     -86.742     -22.510
  H      -91.470     -87.589     -23.641
  H      -96.063     -91.311     -16.036
  H      -96.454     -92.375     -17.365
  H      -95.294     -91.088     -17.589

 3  4  5  6  7  8  9  10  11  12  23  26  30  31 0
 6-311+G(2d,p)
 ****
 33  35  36  37  38 0
 6-311+G(2d,p)
 ****
 1  2  13  14  15  16  17  18  19  20  21  22  24  25 0
 3-21G
 ****
 27  28  29  32  34  39  40  41  42  43  44  45  46  47  48  49 0
 3-21G
 ****


