%nproc=1
%NoSave
%Mem=1900MB
#P OB98/GEN NMR

erre ene a

0 1
  C      274.261     480.679     301.675
  O      274.923     479.524     301.208
  H      274.350     481.463     300.918
  H      274.730     481.030     302.595
  H      273.200     480.485     301.849
  P      274.702     478.139     301.981
  C      273.602     477.027     299.933
  O      273.445     477.425     301.286
  C      272.460     476.106     299.499
  O      272.680     474.781     300.067
  C      271.071     476.575     299.958
  O      270.123     476.139     298.977
  C      270.890     475.793     301.245
  O      269.538     475.755     301.645
  C      271.521     474.455     300.856
  N      271.859     473.637     302.020
  C      270.942     472.658     302.380
  O      269.872     472.486     301.791
  N      271.262     471.904     303.473
  C      272.363     472.073     304.261
  O      272.586     471.388     305.251
  C      273.280     473.152     303.857
  C      272.990     473.872     302.770
  O      274.623     478.234     303.468
  O      275.927     477.223     301.508
  H      268.987     475.361     300.935
  H      276.170     476.595     302.215
  H      270.610     471.183     303.742
  H      274.158     473.319     304.467
  H      273.648     474.672     302.448
  H      270.835     473.873     300.223
  H      271.457     476.258     302.060
  H      271.006     477.657     300.100
  H      272.495     475.991     298.408
  H      274.557     476.498     299.844
  H      273.628     477.914     299.291
  P      269.566     477.120     297.833
  C      270.842     475.755     296.060
  O      270.553     477.053     296.570
  O      269.266     478.504     298.306
  O      268.234     476.402     297.300
  H      267.616     477.078     296.959
  H      271.506     475.840     295.225
  H      269.933     475.284     295.747
  H      271.304     475.166     296.825

 6  7  8  9  10  11  12  13  14  15  16  26  31  32  33  34  35 0
 6-311+G(2d,p)
 ****
 36  37 0
 6-311+G(2d,p)
 ****
 1  2  3  4  5  17  18  19  20  21  22  23  24  25 0
 3-21G
 ****
 27  28  29  30  38  39  40  41  42  43  44  45 0
 3-21G
 ****


