%nproc=1
%NoSave
%Mem=1900MB
#P OB98/GEN NMR

erre ene a

0 1
  C      141.011    -174.374    -254.121
  O      140.318    -173.779    -255.200
  P      139.675    -172.326    -254.940
  C      138.743    -170.457    -256.511
  O      139.508    -171.645    -256.382
  C      138.301    -170.284    -257.966
  O      139.448    -170.032    -258.811
  C      137.597    -171.501    -258.555
  O      136.230    -171.518    -258.170
  C      137.812    -171.284    -260.047
  O      136.858    -170.345    -260.574
  C      139.236    -170.702    -260.081
  N      142.657    -172.442    -263.375
  C      141.642    -171.523    -263.554
  N      141.552    -170.951    -264.775
  N      140.789    -171.189    -262.619
  C      140.989    -171.849    -261.454
  C      141.948    -172.793    -261.161
  C      142.914    -173.112    -262.188
  O      143.891    -173.846    -262.052
  N      141.819    -173.258    -259.878
  C      140.803    -172.576    -259.388
  N      140.278    -171.691    -260.295
  O      140.872    -171.517    -254.262
  O      138.432    -172.325    -254.110
  H      136.966    -170.284    -261.543
  H      140.772    -171.498    -253.292
  H      143.293    -172.645    -264.128
  H      140.430    -172.667    -258.381
  H      139.351    -169.947    -260.870
  H      137.691    -172.207    -260.620
  H      142.159    -171.175    -265.550
  H      138.101    -172.422    -258.238
  H      140.812    -170.277    -264.925
  H      137.653    -169.404    -258.017
  H      139.357    -169.602    -256.218
  H      137.872    -170.514    -255.847
  P      135.430    -172.895    -258.357
  C      133.367    -173.997    -257.223
  O      134.141    -172.826    -257.406
  O      136.375    -173.973    -257.645
  O      135.157    -173.264    -259.775
  H      136.333    -174.819    -258.131
  H      132.912    -173.961    -256.230
  H      133.977    -174.901    -257.306
  H      132.578    -174.025    -257.977
  H      141.387    -175.330    -254.422
  H      140.344    -174.498    -253.293
  H      141.827    -173.745    -253.831

 3  4  5  6  7  8  9  10  11  12  23  26  30  31 0
 6-311+G(2d,p)
 ****
 33  35  36  37  38 0
 6-311+G(2d,p)
 ****
 1  2  13  14  15  16  17  18  19  20  21  22  24  25 0
 3-21G
 ****
 27  28  29  32  34  39  40  41  42  43  44  45  46  47  48  49 0
 3-21G
 ****


