%nproc=1
%NoSave
%Mem=1900MB
#P OB98/GEN NMR

erre ene a

0 1
  C      214.771    -110.855    -303.436
  O      214.229    -110.777    -302.120
  P      213.720    -109.342    -301.611
  C      216.035    -108.233    -301.055
  O      214.892    -108.282    -301.891
  C      217.016    -107.142    -301.524
  O      216.596    -105.873    -300.956
  C      218.460    -107.325    -301.077
  O      219.305    -106.522    -301.906
  C      218.426    -106.750    -299.678
  O      219.736    -106.434    -299.202
  C      217.465    -105.552    -299.836
  N      216.656    -105.273    -298.631
  C      217.251    -104.577    -297.581
  O      218.412    -104.173    -297.591
  N      216.470    -104.380    -296.470
  C      215.175    -104.767    -296.327
  O      214.553    -104.642    -295.278
  C      214.555    -105.375    -297.512
  C      215.315    -105.606    -298.586
  O      213.701    -109.493    -300.020
  O      212.389    -108.949    -302.158
  H      219.666    -106.353    -298.222
  H      212.783    -109.580    -299.703
  H      216.909    -103.934    -295.679
  H      213.503    -105.632    -297.459
  H      214.872    -106.073    -299.465
  H      218.014    -104.631    -300.080
  H      218.001    -107.482    -298.983
  H      218.810    -108.362    -301.084
  H      216.958    -107.048    -302.613
  H      216.528    -109.207    -301.045
  H      215.727    -108.025    -300.024
  P      220.101    -107.246    -303.095
  C      222.218    -107.809    -301.752
  O      221.070    -108.317    -302.402
  O      220.742    -106.342    -304.096
  O      218.972    -108.174    -303.766
  H      219.252    -108.425    -304.665
  H      222.489    -108.478    -300.934
  H      222.042    -106.807    -301.347
  H      223.048    -107.770    -302.465
  H      215.067    -111.863    -303.641
  H      215.622    -110.211    -303.510
  H      214.030    -110.550    -304.145

 3  4  5  6  7  8  9  10  11  12  13  23  28  29  30  31  32 0
 6-311+G(2d,p)
 ****
 33  34 0
 6-311+G(2d,p)
 ****
 1  2  14  15  16  17  18  19  20  21  22  24  25  26  27 0
 3-21G
 ****
 35  36  37  38  39  40  41  42  43  44  45 0
 3-21G
 ****


