%nproc=1
%NoSave
%Mem=1900MB
#P OB98/GEN NMR

erre ene a

0 1
  C      253.153    -752.003     159.896
  O      253.106    -750.579     160.036
  P      253.354    -749.953     161.495
  C      251.581    -748.056     161.313
  O      251.993    -749.249     161.961
  C      250.404    -747.420     162.061
  O      249.217    -748.238     161.976
  C      250.664    -747.207     163.545
  O      251.393    -746.008     163.782
  C      249.247    -747.059     164.073
  O      248.764    -745.732     163.821
  C      248.475    -748.081     163.216
  N      245.480    -750.913     166.140
  C      245.304    -749.630     165.663
  N      244.146    -749.011     166.014
  N      246.174    -749.011     164.915
  C      247.258    -749.758     164.628
  C      247.554    -751.029     165.045
  C      246.588    -751.709     165.884
  O      246.700    -752.839     166.348
  N      248.766    -751.452     164.563
  C      249.207    -750.441     163.834
  N      248.336    -749.378     163.863
  O      254.309    -748.708     161.185
  O      253.971    -750.901     162.469
  H      247.798    -745.740     163.995
  H      254.865    -748.516     161.962
  H      244.781    -751.352     166.714
  H      250.135    -750.422     163.279
  H      247.473    -747.726     162.960
  H      249.188    -747.228     165.153
  H      243.411    -749.445     166.542
  H      251.152    -748.085     163.991
  H      243.989    -748.078     165.646
  H      250.190    -746.446     161.587
  H      251.301    -748.260     160.275
  H      252.437    -747.373     161.252
  P      252.987    -746.124     163.951
  C      253.119    -745.346     166.431
  O      253.247    -746.407     165.502
  O      253.473    -744.608     163.743
  O      253.656    -747.051     162.993
  H      254.362    -744.598     163.345
  H      253.175    -745.750     167.440
  H      252.158    -744.835     166.303
  H      253.940    -744.626     166.291
  H      252.970    -752.267     158.875
  H      252.405    -752.447     160.519
  H      254.119    -752.359     160.189

 3  4  5  6  7  8  9  10  11  12  23  26  30  31 0
 6-311+G(2d,p)
 ****
 33  35  36  37  38 0
 6-311+G(2d,p)
 ****
 1  2  13  14  15  16  17  18  19  20  21  22  24  25 0
 3-21G
 ****
 27  28  29  32  34  39  40  41  42  43  44  45  46  47  48  49 0
 3-21G
 ****


