%nproc=1
%NoSave
%Mem=1900MB
#P OB98/GEN NMR

erre ene a

0 1
  C        7.289    -191.322    -153.035
  O        7.507    -190.455    -151.940
  H        7.188    -192.352    -152.685
  H        6.363    -191.027    -153.540
  H        8.116    -191.248    -153.747
  P        8.818    -190.739    -151.059
  C        7.529    -192.144    -149.309
  O        8.561    -192.126    -150.284
  C        8.086    -192.615    -147.967
  O        8.271    -194.054    -148.034
  C        9.434    -191.978    -147.588
  O        9.387    -191.456    -146.255
  C       10.414    -193.135    -147.621
  O       11.439    -193.025    -146.639
  C        9.515    -194.344    -147.382
  N       13.423    -197.584    -146.887
  C       12.889    -196.686    -146.027
  N       11.790    -195.922    -146.186
  C       11.199    -196.178    -147.366
  C       11.610    -197.082    -148.333
  C       12.793    -197.790    -148.067
  N       13.366    -198.662    -148.967
  N       10.752    -197.061    -149.417
  C        9.863    -196.130    -149.127
  N       10.103    -195.560    -147.903
  O        8.728    -189.635    -149.900
  O       10.103    -190.644    -151.810
  H       11.021    -193.156    -145.770
  H        9.511    -189.056    -149.957
  H       13.425    -196.560    -145.089
  H        9.064    -195.800    -149.778
  H        9.308    -194.490    -146.314
  H       10.886    -193.177    -148.611
  H        9.732    -191.183    -148.278
  H        7.338    -192.421    -147.188
  H        6.735    -192.831    -149.626
  H       14.272    -199.041    -148.745
  H       12.959    -198.736    -149.891
  H        7.106    -191.137    -149.215
  P        9.306    -189.855    -146.120
  C       11.296    -189.595    -144.468
  O       10.777    -189.311    -145.763
  O        8.473    -189.644    -144.771
  O        8.644    -189.186    -147.279
  H        7.688    -189.094    -144.946
  H       12.275    -189.174    -144.376
  H       11.349    -190.655    -144.330
  H       10.654    -189.170    -143.725

 6  7  8  9  10  11  12  13  14  15  25  28  32  33  34  35 0
 6-311+G(2d,p)
 ****
 36  39  40 0
 6-311+G(2d,p)
 ****
 1  2  3  4  5  16  17  18  19  20  21  22  23  24 0
 3-21G
 ****
 26  27  29  30  31  37  38  41  42  43  44  45  46  47  48 0
 3-21G
 ****


