%nproc=1
%NoSave
%Mem=1900MB
#P OB98/GEN NMR

erre ene a

0 1
  C     -857.193    2758.416      43.805
  O     -857.626    2757.546      42.792
  P     -858.370    2758.162      41.478
  C     -856.785    2758.224      39.440
  O     -857.264    2758.907      40.595
  C     -855.604    2758.925      38.799
  O     -856.027    2760.161      38.134
  C     -854.485    2759.286      39.735
  O     -853.227    2759.110      39.000
  C     -854.739    2760.719      40.021
  O     -853.598    2761.398      40.544
  C     -855.204    2761.216      38.633
  N     -855.929    2762.488      38.698
  C     -855.730    2763.373      37.654
  O     -854.878    2763.141      36.802
  N     -856.488    2764.553      37.605
  C     -857.256    2764.819      38.631
  N     -857.984    2765.985      38.579
  C     -857.350    2763.959      39.843
  C     -856.680    2762.818      39.796
  O     -859.605    2758.953      41.795
  O     -858.718    2756.845      40.628
  H     -852.833    2761.310      39.905
  H     -859.539    2757.020      40.146
  H     -857.918    2764.290      40.702
  H     -856.718    2762.125      40.622
  H     -854.335    2761.317      37.952
  H     -855.534    2760.860      40.752
  H     -854.419    2758.664      40.618
  H     -855.231    2758.270      37.973
  H     -857.860    2766.585      37.749
  H     -857.649    2758.136      38.728
  H     -858.655    2766.267      39.314
  H     -856.550    2757.194      39.702
  P     -852.355    2757.822      39.305
  C     -852.239    2756.916      36.889
  O     -852.663    2756.698      38.201
  O     -853.056    2757.209      40.630
  O     -850.879    2758.087      39.641
  H     -852.386    2756.735      41.160
  H     -852.280    2755.943      36.360
  H     -851.201    2757.297      36.847
  H     -852.866    2757.605      36.368
  H     -856.730    2757.851      44.587
  H     -858.032    2758.949      44.200
  H     -856.487    2759.111      43.401

 3  4  5  6  7  8  9  10  11  12  13  23  27  28  29  30  32 0
 6-311+G(2d,p)
 ****
 34  35 0
 6-311+G(2d,p)
 ****
 1  2  14  15  16  17  18  19  20  21  22  24  25  26 0
 3-21G
 ****
 31  33  36  37  38  39  40  41  42  43  44  45  46 0
 3-21G
 ****


