%nproc=1
%NoSave
%Mem=1900MB
#P OB98/GEN NMR

erre ene a

0 1
  C       73.631     131.852      40.121
  O       74.656     130.946      40.539
  P       76.157     131.507      40.600
  C       77.967     132.281      38.895
  O       76.706     131.653      39.103
  C       78.916     131.329      38.164
  O       79.419     130.312      39.051
  C       78.247     130.572      37.030
  O       78.110     131.399      35.891
  C       79.197     129.398      36.827
  O       80.226     129.706      35.872
  C       79.801     129.190      38.235
  N       79.392     127.933      38.840
  C       80.277     126.862      38.680
  O       81.319     127.008      38.037
  N       79.945     125.650      39.229
  C       78.819     125.514      39.858
  N       78.543     124.288      40.376
  C       77.846     126.612      40.025
  C       78.193     127.783      39.494
  O       76.988     130.267      41.179
  O       76.315     132.722      41.454
  H       80.755     128.887      35.782
  H       77.730     130.584      41.724
  H       76.917     126.449      40.550
  H       77.538     128.646      39.568
  H       80.896     129.199      38.184
  H       78.670     128.518      36.448
  H       77.265     130.202      37.353
  H       79.763     131.911      37.778
  H       79.231     123.557      40.241
  H       78.401     132.577      39.852
  H       77.695     124.069      40.877
  H       77.813     133.200      38.321
  P       76.639     131.899      35.504
  C       74.703     130.879      34.163
  O       75.944     130.638      34.798
  O       76.929     132.858      34.253
  O       75.848     132.588      36.564
  H       76.111     133.307      33.978
  H       74.446     130.008      33.554
  H       74.766     131.755      33.513
  H       73.923     131.025      34.914
  H       72.687     131.349      40.126
  H       73.844     132.200      39.132
  H       73.596     132.685      40.792

 3  4  5  6  7  8  9  10  11  12  13  21  23  27  28  29  30  32 0
 6-311+G(2d,p)
 ****
 34  35 0
 6-311+G(2d,p)
 ****
 1  2  14  15  16  17  18  19  20  22  24  25  26 0
 3-21G
 ****
 31  33  36  37  38  39  40  41  42  43  44  45  46 0
 3-21G
 ****


