%nproc=1
%NoSave
%Mem=1900MB
#P OB98/GEN NMR

erre ene a

0 1
  C      282.087     333.373    -329.966
  O      281.655     332.683    -331.122
  P      281.813     331.085    -331.256
  C      283.633     331.545    -333.038
  O      282.444     330.844    -332.713
  C      283.743     331.734    -334.554
  O      283.922     330.432    -335.167
  C      282.513     332.386    -335.202
  O      282.988     333.199    -336.281
  C      281.738     331.189    -335.724
  O      280.839     331.548    -336.772
  C      282.877     330.266    -336.152
  N      282.465     328.871    -336.255
  C      282.526     328.262    -337.513
  O      282.889     328.898    -338.499
  N      282.161     326.947    -337.624
  C      281.700     326.315    -336.591
  N      281.417     324.989    -336.742
  C      281.516     326.947    -335.272
  C      281.938     328.205    -335.174
  O      280.569     330.310    -330.981
  O      283.037     330.734    -330.295
  H      281.338     332.054    -337.443
  H      282.766     330.600    -329.353
  H      281.102     326.384    -334.444
  H      281.868     328.740    -334.234
  H      283.302     330.601    -337.111
  H      281.152     330.751    -334.913
  H      281.945     333.008    -334.502
  H      284.643     332.321    -334.764
  H      281.717     324.554    -337.604
  H      284.487     330.955    -332.694
  H      281.366     324.371    -335.934
  H      283.650     332.508    -332.519
  P      283.457     334.704    -335.948
  C      281.611     335.538    -337.560
  O      282.937     335.657    -337.129
  O      285.037     334.616    -336.257
  O      283.245     335.175    -334.550
  H      285.501     335.291    -335.735
  H      281.430     336.259    -338.358
  H      280.913     335.741    -336.743
  H      281.423     334.528    -337.959
  H      281.891     334.419    -330.081
  H      283.137     333.219    -329.831
  H      281.559     333.003    -329.112

 3  4  5  6  7  8  9  10  11  12  13  23  27  28  29  30  32 0
 6-311+G(2d,p)
 ****
 34  35 0
 6-311+G(2d,p)
 ****
 1  2  14  15  16  17  18  19  20  21  22  24  25  26 0
 3-21G
 ****
 31  33  36  37  38  39  40  41  42  43  44  45  46 0
 3-21G
 ****


