%nproc=1
%NoSave
%Mem=1900MB
#P OB98/GEN NMR

erre ene a

0 1
  C     1097.108    -106.363     653.556
  O     1096.493    -106.749     652.344
  H     1097.292    -107.250     654.167
  H     1096.459    -105.685     654.106
  H     1098.066    -105.876     653.346
  P     1096.048    -105.583     651.343
  C     1093.757    -104.403     650.940
  O     1094.631    -105.031     651.878
  C     1092.330    -104.461     651.463
  O     1092.117    -103.402     652.434
  C     1091.279    -104.247     650.376
  O     1091.030    -105.410     649.608
  C     1090.068    -103.866     651.237
  O     1089.385    -105.030     651.720
  C     1090.700    -103.073     652.395
  N     1090.487    -101.636     652.241
  C     1089.242    -101.175     652.666
  O     1088.377    -101.901     653.139
  N     1089.013     -99.836     652.481
  C     1089.863     -98.941     651.893
  O     1089.582     -97.768     651.710
  C     1091.157     -99.492     651.461
  C     1091.408    -100.789     651.633
  O     1095.669    -106.373     650.004
  O     1097.081    -104.540     651.103
  H     1096.364    -106.227     649.333
  H     1088.919    -105.418     650.944
  H     1088.121     -99.490     652.776
  H     1091.857     -98.817     650.980
  H     1092.351    -101.232     651.300
  H     1090.287    -103.393     653.350
  H     1089.345    -103.287     650.671
  H     1091.538    -103.388     649.749
  H     1092.184    -105.433     651.964
  H     1093.823    -104.920     649.976
  H     1094.088    -103.362     650.809
  P     1089.931    -105.297     648.444
  C     1087.312    -105.439     648.487
  O     1088.523    -105.184     649.176
  O     1089.974    -106.796     647.860
  O     1090.243    -104.242     647.428
  H     1090.256    -107.445     648.553
  H     1086.487    -105.309     649.156
  H     1087.317    -106.443     648.117
  H     1087.218    -104.758     647.667

 6  7  8  9  10  11  12  13  14  15  16  27  31  32  33  34  35 0
 6-311+G(2d,p)
 ****
 36  37 0
 6-311+G(2d,p)
 ****
 1  2  3  4  5  17  18  19  20  21  22  23  24  25 0
 3-21G
 ****
 26  28  29  30  38  39  40  41  42  43  44  45 0
 3-21G
 ****


