%nproc=1
%NoSave
%Mem=1900MB
#P OB98/GEN NMR

erre ene a

0 1
  C     -458.922    -526.212     161.806
  O     -459.893    -525.357     161.215
  P     -459.368    -523.967     160.613
  C     -458.129    -521.982     161.766
  O     -459.099    -523.005     161.858
  C     -457.816    -521.417     163.151
  O     -457.088    -522.401     163.932
  C     -456.968    -520.160     163.145
  O     -457.772    -519.030     162.889
  C     -456.361    -520.197     164.544
  O     -457.301    -519.690     165.520
  C     -456.104    -521.698     164.752
  N     -451.361    -522.194     166.421
  C     -452.438    -521.570     167.001
  N     -452.243    -521.028     168.225
  N     -453.622    -521.476     166.430
  C     -453.671    -522.050     165.205
  C     -452.662    -522.685     164.515
  C     -451.387    -522.831     165.181
  O     -450.423    -523.465     164.750
  N     -453.085    -523.115     163.284
  C     -454.359    -522.768     163.249
  N     -454.775    -522.129     164.395
  O     -460.674    -523.360     159.915
  O     -458.219    -524.080     159.655
  H     -456.916    -519.807     166.410
  H     -460.670    -523.531     158.952
  H     -450.487    -522.263     166.910
  H     -455.023    -522.971     162.428
  H     -456.275    -522.006     165.785
  H     -455.464    -519.573     164.619
  H     -451.363    -521.032     168.715
  H     -456.166    -520.243     162.392
  H     -453.027    -520.551     168.657
  H     -458.774    -521.247     163.657
  H     -458.513    -521.183     161.128
  H     -457.209    -522.390     161.293
  P     -457.049    -517.727     162.286
  C     -454.771    -516.612     162.836
  O     -455.909    -517.285     163.327
  O     -458.155    -516.585     162.426
  O     -456.594    -517.873     160.869
  H     -458.109    -515.983     161.668
  H     -454.398    -515.934     163.623
  H     -455.006    -516.005     161.945
  H     -453.993    -517.326     162.580
  H     -459.400    -527.099     162.166
  H     -458.450    -525.705     162.622
  H     -458.186    -526.475     161.075

 3  4  5  6  7  8  9  10  11  12  23  26  30  31 0
 6-311+G(2d,p)
 ****
 33  35  36  37  38 0
 6-311+G(2d,p)
 ****
 1  2  13  14  15  16  17  18  19  20  21  22  24  25 0
 3-21G
 ****
 27  28  29  32  34  39  40  41  42  43  44  45  46  47  48  49 0
 3-21G
 ****


