%nproc=1
%NoSave
%Mem=1900MB
#P OB98/GEN NMR

erre ene a

0 1
  C      -54.077      24.855      96.797
  O      -53.631      23.591      97.239
  P      -52.261      22.959      96.707
  C      -53.544      21.492      95.022
  O      -52.530      22.475      95.197
  C      -53.678      21.125      93.539
  O      -54.475      19.904      93.431
  C      -54.379      22.222      92.713
  O      -53.659      22.637      91.552
  C      -55.750      21.621      92.451
  O      -56.426      22.189      91.347
  C      -55.423      20.126      92.369
  N      -56.610      19.285      92.497
  C      -57.437      19.180      91.383
  O      -57.228      19.735      90.308
  N      -58.580      18.449      91.552
  C      -59.027      17.922      92.726
  O      -60.110      17.363      92.826
  C      -58.131      18.099      93.878
  C      -56.971      18.740      93.713
  O      -51.654      21.917      97.585
  O      -51.332      24.244      96.482
  H      -55.946      21.932      90.537
  H      -51.679      24.894      95.847
  H      -59.188      18.365      90.752
  H      -58.464      17.701      94.825
  H      -56.290      18.885      94.544
  H      -54.925      19.878      91.431
  H      -56.372      21.809      93.336
  H      -54.491      23.143      93.297
  H      -52.676      20.920      93.154
  H      -54.493      21.897      95.378
  H      -53.314      20.609      95.629
  P      -53.515      24.150      91.052
  C      -54.226      23.790      88.577
  O      -54.523      24.371      89.830
  O      -52.116      24.608      90.807
  O      -54.185      24.999      92.233
  H      -53.772      25.880      92.277
  H      -54.670      24.407      87.792
  H      -54.667      22.792      88.530
  H      -53.147      23.724      88.410
  H      -55.007      25.091      97.271
  H      -54.212      24.834      95.736
  H      -53.350      25.598      97.050

 3  4  5  6  7  8  9  10  11  12  13  23  28  29  30  31  32 0
 6-311+G(2d,p)
 ****
 33  34 0
 6-311+G(2d,p)
 ****
 1  2  14  15  16  17  18  19  20  21  22  24  25  26  27 0
 3-21G
 ****
 35  36  37  38  39  40  41  42  43  44  45 0
 3-21G
 ****


