%nproc=1
%NoSave
%Mem=1900MB
#P OB98/GEN NMR

erre ene a

0 1
  C      588.314     247.297    1856.933
  O      587.018     247.035    1856.417
  H      589.027     247.188    1856.122
  H      588.560     246.599    1857.735
  H      588.352     248.326    1857.310
  P      585.803     247.103    1857.474
  C      584.914     249.369    1856.573
  O      584.675     247.965    1856.717
  C      584.506     249.849    1855.162
  O      585.527     249.446    1854.211
  C      583.168     249.251    1854.698
  O      582.426     250.274    1853.971
  C      583.569     248.128    1853.729
  O      582.564     247.839    1852.767
  C      584.879     248.703    1853.150
  N      588.168     247.342    1849.484
  C      587.560     248.531    1849.751
  N      586.715     248.815    1850.778
  C      586.540     247.713    1851.552
  C      587.088     246.456    1851.392
  C      587.929     246.305    1850.280
  N      588.548     245.099    1849.974
  N      586.639     245.607    1852.410
  C      585.859     246.344    1853.159
  N      585.744     247.637    1852.680
  O      586.147     247.593    1858.845
  O      585.209     245.622    1857.394
  H      581.808     247.431    1853.255
  H      585.158     245.309    1856.469
  H      587.780     249.365    1849.083
  H      585.319     245.981    1854.045
  H      584.715     249.376    1852.305
  H      583.786     247.223    1854.321
  H      582.544     248.874    1855.523
  H      584.474     250.954    1855.170
  H      585.992     249.573    1856.727
  H      589.141     245.072    1849.176
  H      588.390     244.313    1850.581
  H      584.338     249.895    1857.340
  P      580.871     249.990    1853.643
  C      579.976     252.034    1854.978
  O      580.094     251.413    1853.697
  O      580.230     248.865    1854.428
  O      580.909     249.675    1852.062
  H      580.233     248.961    1851.882
  H      579.447     252.959    1854.879
  H      580.952     252.222    1855.375
  H      579.440     251.386    1855.640

 6  7  8  9  10  11  12  13  14  15  25  28  32  33  34  35 0
 6-311+G(2d,p)
 ****
 36  39  40 0
 6-311+G(2d,p)
 ****
 1  2  3  4  5  16  17  18  19  20  21  22  23  24 0
 3-21G
 ****
 26  27  29  30  31  37  38  41  42  43  44  45  46  47 0
 3-21G
 ****
 48 0
 3-21G
 ****


