%nproc=1
%NoSave
%Mem=1900MB
#P OB98/GEN NMR

erre ene a

0 1
  C     -388.971     263.320     369.962
  O     -387.997     262.358     370.372
  P     -387.715     261.077     369.456
  C     -385.506     261.860     368.368
  O     -386.138     260.921     369.228
  C     -384.499     261.150     367.458
  O     -383.966     262.042     366.455
  C     -383.277     260.637     368.214
  O     -383.482     259.556     369.104
  C     -382.267     260.439     367.099
  O     -382.450     259.179     366.442
  C     -382.623     261.604     366.139
  N     -381.671     262.715     366.230
  C     -380.579     262.651     365.365
  O     -380.380     261.714     364.599
  N     -379.703     263.697     365.442
  C     -379.785     264.760     366.295
  O     -378.957     265.656     366.337
  C     -380.942     264.758     367.201
  C     -381.821     263.750     367.126
  O     -388.549     260.962     368.225
  O     -388.036     259.854     370.453
  H     -381.838     259.156     365.687
  H     -388.518     259.171     369.943
  H     -378.905     263.674     364.818
  H     -381.040     265.577     367.895
  H     -382.686     263.729     367.785
  H     -382.638     261.255     365.108
  H     -381.241     260.457     367.472
  H     -382.904     261.467     368.836
  H     -385.016     260.337     366.939
  H     -385.004     262.630     368.961
  H     -386.275     262.377     367.780
  P     -382.870     259.513     370.589
  C     -384.093     261.353     371.941
  O     -384.008     259.985     371.614
  O     -381.498     260.063     370.780
  O     -382.824     257.920     370.852
  H     -382.057     257.732     371.427
  H     -384.901     261.490     372.656
  H     -384.317     261.947     371.045
  H     -383.157     261.704     372.395
  H     -389.027     264.103     370.689
  H     -389.926     262.846     369.874
  H     -388.689     263.732     369.016

 3  4  5  6  7  8  9  10  11  12  13  23  28  29  30  31  32 0
 6-311+G(2d,p)
 ****
 33  34 0
 6-311+G(2d,p)
 ****
 1  2  14  15  16  17  18  19  20  21  22  24  25  26  27 0
 3-21G
 ****
 35  36  37  38  39  40  41  42  43  44  45 0
 3-21G
 ****


