%nproc=1
%NoSave
%Mem=1900MB
#P OB98/GEN NMR

erre ene a

0 1
  C       62.184     -97.937      53.386
  O       61.029     -97.140      53.231
  H       62.657     -97.684      54.339
  H       62.895     -97.735      52.581
  H       61.926     -98.999      53.396
  P       60.055     -97.428      51.992
  C       60.666     -95.058      51.186
  O       60.478     -96.420      50.821
  C       60.739     -94.190      49.934
  O       61.908     -94.537      49.159
  C       59.557     -94.371      48.989
  O       58.398     -93.723      49.475
  C       60.128     -93.797      47.705
  O       60.035     -92.368      47.690
  C       61.604     -94.248      47.776
  N       61.866     -95.407      46.924
  C       63.200     -95.765      46.766
  O       64.131     -95.170      47.304
  N       63.440     -96.805      45.908
  C       62.510     -97.407      45.110
  O       62.803     -98.156      44.184
  C       61.112     -97.032      45.366
  C       60.858     -96.055      46.239
  O       58.597     -97.456      52.309
  O       60.559     -98.846      51.440
  H       59.947     -99.543      51.744
  H       59.089     -92.160      47.834
  H       64.410     -97.042      45.756
  H       60.338     -97.540      44.804
  H       59.836     -95.737      46.419
  H       62.269     -93.431      47.469
  H       59.600     -94.174      46.827
  H       59.361     -95.440      48.844
  H       60.834     -93.142      50.243
  H       61.603     -94.970      51.746
  H       59.837     -94.744      51.830
  P       56.953     -94.129      48.919
  C       56.131     -91.881      47.983
  O       56.611     -93.185      47.670
  O       55.876     -94.219      49.948
  O       57.191     -95.555      48.226
  H       56.517     -96.180      48.555
  H       55.938     -91.345      47.077
  H       56.868     -91.358      48.556
  H       55.227     -91.960      48.550

 6  7  8  9  10  11  12  13  14  15  16  27  31  32  33  34  35 0
 6-311+G(2d,p)
 ****
 36  37 0
 6-311+G(2d,p)
 ****
 1  2  3  4  5  17  18  19  20  21  22  23  24  25 0
 3-21G
 ****
 26  28  29  30  38  39  40  41  42  43  44  45 0
 3-21G
 ****


