%nproc=1
%NoSave
%Mem=1900MB
#P OB98/GEN NMR

erre ene a

0 1
  C     -382.688    -219.241     278.853
  O     -382.674    -220.184     279.914
  H     -382.548    -219.774     277.905
  H     -381.857    -218.533     278.978
  H     -383.642    -218.710     278.831
  P     -382.873    -219.598     281.393
  C     -385.139    -220.835     281.832
  O     -383.765    -220.668     282.179
  C     -385.553    -222.296     281.929
  O     -385.111    -222.992     280.724
  C     -384.934    -223.047     283.128
  O     -385.849    -224.085     283.503
  C     -383.687    -223.660     282.483
  O     -383.136    -224.659     283.312
  C     -384.280    -224.099     281.143
  N     -380.909    -227.553     279.458
  C     -381.819    -227.588     280.461
  N     -382.686    -226.642     280.837
  C     -382.586    -225.553     280.053
  C     -381.712    -225.367     278.987
  C     -380.837    -226.429     278.688
  N     -379.914    -226.387     277.677
  N     -381.895    -224.108     278.412
  C     -382.852    -223.558     279.124
  N     -383.286    -224.387     280.131
  O     -383.868    -218.360     281.164
  O     -381.617    -219.184     282.099
  H     -383.839    -225.259     283.644
  H     -383.366    -217.541     281.077
  H     -381.829    -228.518     281.036
  H     -383.267    -222.570     278.960
  H     -384.923    -224.988     281.255
  H     -382.911    -222.898     282.347
  H     -384.730    -222.403     283.984
  H     -386.646    -222.365     281.944
  H     -385.281    -220.463     280.807
  H     -385.756    -220.225     282.511
  H     -379.309    -227.192     277.538
  H     -379.842    -225.549     277.105
  P     -385.532    -224.942     284.835
  C     -387.626    -224.083     286.163
  O     -386.912    -225.208     285.613
  O     -384.812    -223.864     285.765
  O     -384.649    -226.149     284.648
  H     -384.185    -224.313     286.390
  H     -388.517    -224.427     286.645
  H     -387.885    -223.406     285.376
  H     -387.006    -223.581     286.876

 6  7  8  9  10  11  12  13  14  15  25  28  32  33  34  35 0
 6-311+G(2d,p)
 ****
 36  37  40 0
 6-311+G(2d,p)
 ****
 1  2  3  4  5  16  17  18  19  20  21  22  23  24 0
 3-21G
 ****
 26  27  29  30  31  38  39 41  42  43  44  45  46  47  48 0
 3-21G
 ****


