%nproc=1
%NoSave
%Mem=1900MB
#P OB98/GEN NMR

erre ene a

0 1
  C     -221.853    -140.375      31.777
  O     -220.849    -141.359      31.958
  H     -222.244    -140.096      32.759
  H     -222.672    -140.781      31.180
  H     -221.439    -139.486      31.296
  P     -219.998    -141.836      30.683
  C     -217.837    -142.453      31.960
  O     -218.950    -142.938      31.203
  C     -217.107    -143.634      32.595
  O     -217.876    -144.178      33.692
  C     -216.863    -144.804      31.645
  O     -215.796    -144.522      30.751
  C     -216.582    -145.931      32.633
  O     -215.223    -145.881      33.099
  C     -217.579    -145.601      33.768
  N     -218.800    -146.390      33.713
  C     -218.643    -147.787      33.764
  O     -217.537    -148.339      33.822
  N     -219.793    -148.517      33.714
  C     -221.051    -148.017      33.509
  O     -222.048    -148.725      33.377
  C     -221.160    -146.561      33.434
  C     -220.042    -145.817      33.541
  O     -219.411    -140.753      29.851
  O     -221.047    -142.715      29.846
  H     -215.126    -145.026      33.561
  H     -221.347    -142.210      29.065
  H     -219.699    -149.520      33.732
  H     -222.143    -146.126      33.290
  H     -220.108    -144.744      33.480
  H     -217.103    -145.761      34.747
  H     -216.745    -146.906      32.192
  H     -217.783    -145.025      31.092
  H     -216.146    -143.263      33.003
  H     -218.215    -141.787      32.753
  H     -217.174    -141.895      31.298
  P     -216.074    -144.472      29.168
  C     -214.147    -143.027      28.247
  O     -214.655    -144.354      28.432
  O     -217.107    -143.481      28.734
  O     -216.531    -145.973      28.825
  H     -217.441    -145.954      28.461
  H     -213.201    -143.073      27.749
  H     -214.025    -142.556      29.200
  H     -214.835    -142.461      27.654

 6  7  8  9  10  11  12  13  14  15  16  26  31  32  33  34  35 0
 6-311+G(2d,p)
 ****
 36  37 0
 6-311+G(2d,p)
 ****
 1  2  3  4  5  17  18  19  20  21  22  23  24  25 0
 3-21G
 ****
 27  28  29  30  38  39  40  41  42  43  44  45 0
 3-21G
 ****


