%nproc=1
%NoSave
%Mem=1900MB
#P OB98/GEN NMR

erre ene a

0 1
  C      -22.307     262.784     107.621
  O      -21.732     263.839     106.836
  P      -20.148     264.076     106.964
  C      -19.723     264.247     104.379
  O      -19.729     264.895     105.650
  C      -19.100     265.160     103.329
  O      -19.891     266.366     103.171
  C      -17.689     265.640     103.669
  O      -16.733     264.610     103.492
  C      -17.550     266.822     102.715
  O      -17.208     266.369     101.401
  C      -18.986     267.404     102.721
  N      -19.113     268.611     103.527
  C      -19.024     269.820     102.840
  O      -18.832     269.885     101.619
  N      -19.152     270.955     103.594
  C      -19.318     270.997     104.943
  O      -19.434     272.051     105.575
  C      -19.350     269.690     105.637
  C      -19.249     268.577     104.905
  O      -19.589     262.596     106.709
  O      -19.753     264.691     108.267
  H      -20.123     262.099     106.060
  H      -17.164     267.170     100.837
  H      -19.101     271.837     103.115
  H      -19.461     269.692     106.713
  H      -19.264     267.604     105.394
  H      -19.293     267.654     101.693
  H      -16.773     267.529     103.039
  H      -17.662     266.000     104.711
  H      -19.090     264.627     102.363
  H      -20.746     263.995     104.081
  H      -19.165     263.308     104.470
  P      -15.338     264.763     104.271
  C      -15.248     262.302     105.154
  O      -14.690     263.300     104.333
  O      -15.848     265.031     105.769
  O      -14.462     265.839     103.725
  H      -16.572     264.429     106.033
  H      -14.907     261.320     104.809
  H      -16.343     262.324     105.117
  H      -14.918     262.442     106.187
  H      -23.361     262.738     107.440
  H      -22.132     262.976     108.659
  H      -21.858     261.852     107.349

 3  4  5  6  7  8  9  10  11  12  13  24  28  29  30  31  32 0
 6-311+G(2d,p)
 ****
 33  34 0
 6-311+G(2d,p)
 ****
 1  2  14  15  16  17  18  19  20  21  22  23  25  26  27 0
 3-21G
 ****
 35  36  37  38  39  40  41  42  43  44  45 0
 3-21G
 ****


