%nproc=1
%NoSave
%Mem=1900MB
#P OB98/GEN NMR

erre ene a

0 1
  C     -180.605     837.963    -637.513
  O     -179.609     838.888    -637.917
  H     -181.580     838.348    -637.838
  H     -180.610     837.869    -636.422
  H     -180.445     836.990    -637.974
  P     -178.069     838.523    -637.658
  C     -177.781     838.325    -640.208
  O     -177.564     837.711    -638.938
  C     -177.635     837.308    -641.338
  O     -178.531     836.189    -641.093
  C     -177.951     837.880    -642.731
  O     -177.045     837.318    -643.679
  C     -179.374     837.372    -642.992
  O     -179.647     837.243    -644.396
  C     -179.351     836.025    -642.266
  N     -183.591     833.841    -643.941
  C     -182.379     834.028    -644.569
  N     -182.291     833.610    -645.849
  N     -181.344     834.604    -644.006
  C     -181.583     834.973    -642.712
  C     -182.745     834.825    -641.980
  C     -183.881     834.211    -642.619
  O     -184.981     834.021    -642.123
  N     -182.594     835.356    -640.718
  C     -181.343     835.809    -640.693
  N     -180.700     835.606    -641.884
  O     -177.777     837.853    -636.346
  O     -177.306     839.932    -637.785
  H     -179.390     838.091    -644.818
  H     -177.115     840.304    -636.904
  H     -184.364     833.404    -644.437
  H     -180.876     836.288    -639.850
  H     -178.933     835.212    -642.873
  H     -180.093     838.053    -642.554
  H     -183.033     833.143    -646.354
  H     -177.904     838.982    -642.762
  H     -181.389     833.716    -646.333
  H     -176.610     836.913    -641.313
  H     -177.048     839.131    -640.330
  H     -178.796     838.766    -640.232
  P     -175.513     837.761    -643.640
  C     -174.518     835.412    -643.176
  O     -174.717     836.745    -642.665
  O     -175.252     839.203    -643.368
  O     -174.980     837.333    -645.093
  H     -174.260     837.945    -645.354
  H     -173.985     834.829    -642.454
  H     -173.954     835.459    -644.084
  H     -175.468     834.959    -643.369

 6  7  8  9  10  11  12  13  14  15  26  29  33  34 0
 6-311+G(2d,p)
 ****
 36  38  39  40  41 0
 6-311+G(2d,p)
 ****
 1  2  3  4  5  16  17  18  19  20  21  22  23  24  25 0
 3-21G
 ****
 27  28  30  31  32  35  37  42  43  44  45  46  47 0
 3-21G
 ****
 48  49 0
 3-21G
 ****


