%nproc=1
%NoSave
%Mem=1900MB
#P OB98/GEN NMR

erre ene a

0 1
  C      -75.518     776.666    -377.865
  O      -74.478     776.002    -378.564
  P      -73.605     774.850    -377.870
  C      -74.626     772.822    -379.101
  O      -73.496     773.669    -378.956
  C      -74.208     771.509    -379.807
  O      -73.854     771.831    -381.179
  C      -72.998     770.795    -379.180
  O      -73.226     769.379    -379.327
  C      -71.852     771.247    -380.027
  O      -70.732     770.376    -379.975
  C      -72.514     771.322    -381.420
  N      -71.769     772.189    -382.338
  C      -70.653     771.643    -382.967
  O      -70.279     770.501    -382.716
  N      -69.962     772.420    -383.866
  C      -70.319     773.648    -384.073
  N      -69.641     774.362    -385.017
  C      -71.449     774.292    -383.359
  C      -72.131     773.504    -382.542
  O      -74.082     774.416    -376.530
  O      -72.114     775.427    -377.872
  H      -70.061     770.702    -380.623
  H      -71.918     776.014    -377.093
  H      -71.684     775.334    -383.539
  H      -72.981     773.872    -381.996
  H      -72.613     770.311    -381.853
  H      -71.503     772.240    -379.699
  H      -72.895     771.033    -378.115
  H      -75.072     770.853    -379.842
  H      -68.983     773.841    -385.595
  H      -75.369     773.329    -379.706
  H      -70.049     775.178    -385.456
  H      -75.056     772.597    -378.112
  P      -73.077     768.450    -378.014
  C      -73.548     766.486    -379.663
  O      -72.849     766.935    -378.521
  O      -74.596     768.381    -377.498
  O      -72.189     768.938    -376.932
  H      -74.607     768.210    -376.532
  H      -73.254     765.449    -379.876
  H      -73.265     767.090    -380.543
  H      -74.621     766.540    -379.517
  H      -75.970     777.394    -378.506
  H      -75.114     777.153    -377.002
  H      -76.255     775.953    -377.560

 3  4  5  6  7  8  9  10  11  12  13  23  27  28  29  30  32 0
 6-311+G(2d,p)
 ****
 34  35 0
 6-311+G(2d,p)
 ****
 1  2  14  15  16  17  18  19  20  21  22  24  25  26 0
 3-21G
 ****
 31  33  36  37  38  39  40  41  42  43  44  45  46 0
 3-21G
 ****


