%nproc=1
%NoSave
%Mem=1900MB
#P OB98/GEN NMR

erre ene a

0 1
  C       85.192    -133.603      33.481
  O       84.676    -132.635      32.568
  P       83.093    -132.378      32.540
  C       80.935    -133.745      32.170
  O       82.352    -133.784      32.317
  C       80.311    -135.089      32.588
  O       80.767    -136.122      31.675
  C       80.697    -135.570      33.991
  O       79.893    -135.160      35.091
  C       80.501    -137.080      33.851
  O       79.114    -137.412      34.044
  C       80.897    -137.362      32.404
  N       84.018    -141.260      33.529
  C       82.710    -141.045      33.790
  N       81.954    -139.980      33.458
  C       82.674    -139.079      32.769
  C       84.014    -139.162      32.425
  C       84.701    -140.317      32.837
  N       86.037    -140.531      32.580
  N       84.410    -138.041      31.726
  C       83.329    -137.285      31.667
  N       82.252    -137.875      32.270
  O       82.629    -131.261      31.669
  O       82.769    -132.065      34.081
  H       79.007    -138.340      33.762
  H       82.081    -131.373      34.126
  H       82.204    -141.833      34.345
  H       83.282    -136.311      31.199
  H       80.233    -138.093      31.924
  H       81.065    -137.644      34.598
  H       81.750    -135.352      34.202
  H       79.218    -135.017      32.504
  H       80.680    -133.531      31.128
  H       86.462    -141.367      32.951
  H       86.575    -139.813      32.118
  H       80.564    -132.907      32.763
  P       80.275    -133.876      35.971
  C       82.476    -133.131      37.177
  O       81.846    -134.008      36.267
  O       79.432    -133.661      37.181
  O       80.211    -132.688      34.898
  H       80.907    -132.721      34.221
  H       83.475    -133.516      37.399
  H       81.908    -133.060      38.109
  H       82.574    -132.138      36.724
  H       86.256    -133.658      33.379
  H       84.763    -134.560      33.266
  H       84.944    -133.317      34.482

 3  4  5  6  7  8  9  10  11  12  22  25  29  30  31  32 0
 6-311+G(2d,p)
 ****
 33  36  37 0
 6-311+G(2d,p)
 ****
 1  2  13  14  15  16  17  18  19  20  21  23  24  26 0
 3-21G
 ****
 27  28  34  35  38  39  40  41  42  43  44  45  46  47  48 0
 3-21G
 ****


