%nproc=1
%NoSave
%Mem=1900MB
#P OB98/GEN NMR

erre ene a

0 1
  C      456.810     884.780     820.552
  O      458.044     885.324     820.965
  H      456.934     883.735     820.261
  H      456.107     884.835     821.382
  H      456.410     885.359     819.712
  P      459.252     885.242     819.909
  C      458.202     887.374     818.875
  O      458.803     886.114     818.636
  C      458.675     888.383     817.833
  O      460.108     888.516     817.882
  C      458.356     888.004     816.394
  O      457.002     888.283     816.052
  C      459.316     888.927     815.641
  O      458.756     890.248     815.557
  C      460.550     888.932     816.565
  N      463.670     887.637     812.688
  C      462.703     888.586     812.796
  N      461.920     888.867     813.851
  C      462.190     888.060     814.893
  C      463.138     887.043     814.925
  C      463.900     886.842     813.760
  N      464.861     885.859     813.657
  N      463.146     886.427     816.167
  C      462.224     887.064     816.862
  N      461.613     888.049     816.129
  O      459.172     883.731     819.374
  O      460.604     885.555     820.455
  H      457.921     890.165     815.061
  H      460.079     883.408     819.209
  H      462.565     889.211     811.922
  H      461.972     886.841     817.886
  H      460.967     889.943     816.666
  H      459.524     888.589     814.625
  H      458.618     886.962     816.181
  H      458.238     889.363     818.086
  H      458.483     887.727     819.871
  H      465.502     885.891     812.878
  H      465.031     885.270     814.466
  H      457.110     887.264     818.832
  P      456.314     887.342     814.946
  C      455.850     885.760     816.952
  O      456.262     885.870     815.595
  O      457.432     887.210     813.824
  O      455.028     887.863     814.395
  H      457.028     887.019     812.957
  H      455.863     884.731     817.247
  H      454.858     886.148     817.056
  H      456.518     886.318     817.574

 6  7  8  9  10  11  12  13  14  15  25  28  32  33  34  35 0
 6-311+G(2d,p)
 ****
 36  39  40 0
 6-311+G(2d,p)
 ****
 1  2  3  4  5  16  17  18  19  20  21  22  23  24 0
 3-21G
 ****
 26  27  29  30  31  37  38  41  42  43  44  45  46  47  48 0
 3-21G
 ****


