%nproc=1
%NoSave
%Mem=1900MB
#P OB98/GEN NMR

erre ene a

0 1
  C      156.884    -121.346     -45.530
  O      155.689    -120.804     -46.076
  P      155.496    -119.211     -46.048
  C      153.285    -119.197     -44.694
  O      153.917    -118.934     -45.939
  C      151.812    -119.557     -44.888
  O      151.093    -118.376     -45.340
  C      151.557    -120.662     -45.917
  O      150.409    -121.397     -45.476
  C      151.199    -119.889     -47.171
  O      150.475    -120.682     -48.108
  C      150.412    -118.731     -46.562
  N      147.594    -116.305     -50.069
  C      147.360    -117.419     -49.344
  N      148.160    -118.003     -48.428
  C      149.307    -117.317     -48.293
  C      149.698    -116.185     -48.988
  C      148.778    -115.668     -49.915
  N      149.008    -114.525     -50.647
  N      150.958    -115.784     -48.593
  C      151.322    -116.659     -47.677
  N      150.348    -117.588     -47.447
  O      155.845    -118.791     -47.552
  O      156.348    -118.485     -45.067
  H      149.730    -121.104     -47.641
  H      156.683    -118.284     -47.569
  H      146.402    -117.902     -49.519
  H      152.270    -116.665     -47.159
  H      149.384    -119.019     -46.305
  H      152.112    -119.534     -47.662
  H      152.406    -121.338     -46.067
  H      151.394    -119.836     -43.914
  H      153.347    -118.299     -44.072
  H      148.248    -114.142     -51.185
  H      149.801    -113.940     -50.403
  H      153.808    -120.010     -44.183
  P      150.667    -122.607     -44.455
  C      149.956    -124.386     -46.204
  O      149.731    -123.815     -44.929
  O      149.980    -122.100     -43.100
  O      152.108    -122.937     -44.252
  H      150.420    -122.507     -42.332
  H      149.723    -125.452     -46.159
  H      150.995    -124.264     -46.529
  H      149.296    -123.907     -46.931
  H      156.866    -122.412     -45.621
  H      156.958    -121.077     -44.497
  H      157.727    -120.957     -46.061

 3  4  5  6  7  8  9  10  11  12  22  25  29  30  31  32 0
 6-311+G(2d,p)
 ****
 33  36  37 0
 6-311+G(2d,p)
 ****
 1  2  13  14  15  16  17  18  19  20  21  23  24  26 0
 3-21G
 ****
 27  28  34  35  38  39  40  41  42  43  44  45  46  47  48 0
 3-21G
 ****


