%nproc=1
%NoSave
%Mem=1900MB
#P OB98/GEN NMR

erre ene a

0 1
  C      178.417    -321.252     -51.590
  O      177.433    -321.339     -52.629
  P      177.924    -321.135     -54.144
  C      177.190    -323.547     -54.807
  O      178.235    -322.582     -54.769
  C      176.752    -323.807     -56.243
  O      177.848    -324.295     -57.046
  C      175.668    -324.867     -56.361
  O      174.405    -324.332     -56.012
  C      175.776    -325.276     -57.825
  O      174.934    -324.476     -58.669
  C      177.273    -325.031     -58.148
  N      178.006    -326.258     -58.402
  C      178.139    -326.619     -59.753
  O      177.630    -325.929     -60.630
  N      178.826    -327.769     -60.055
  C      179.309    -328.513     -59.098
  N      179.970    -329.638     -59.466
  C      179.173    -328.175     -57.673
  C      178.508    -327.043     -57.398
  O      179.371    -320.485     -53.971
  O      177.021    -320.269     -54.955
  H      175.123    -324.767     -59.584
  H      179.557    -319.877     -54.706
  H      179.580    -328.823     -56.907
  H      178.360    -326.719     -56.369
  H      177.367    -324.383     -59.031
  H      175.477    -326.320     -57.974
  H      175.915    -325.728     -55.718
  H      176.397    -322.860     -56.671
  H      180.046    -329.833     -60.454
  H      176.338    -323.210     -54.207
  H      180.379    -330.287     -58.801
  H      177.564    -324.474     -54.331
  P      173.358    -325.293     -55.286
  C      173.751    -324.473     -52.875
  O      173.962    -325.516     -53.805
  O      173.666    -326.709     -55.970
  O      171.918    -324.928     -55.360
  H      173.018    -327.376     -55.678
  H      174.015    -324.830     -51.869
  H      172.687    -324.176     -52.868
  H      174.382    -323.611     -53.119
  H      177.948    -321.408     -50.641
  H      178.871    -320.283     -51.609
  H      179.166    -322.000     -51.745

 3  4  5  6  7  8  9  10  11  12  13  21  23  27  28  29  30  32 0
 6-311+G(2d,p)
 ****
 34  35 0
 6-311+G(2d,p)
 ****
 1  2  14  15  16  17  18  19  20  22  24  25  26 0
 3-21G
 ****
 31  33  36  37  38  39  40  41  42  43  44  45  46 0
 3-21G
 ****


