%nproc=1
%NoSave
%Mem=1900MB
#P OB98/GEN NMR

erre ene a

0 1
  C       66.383    -199.869    -343.450
  O       66.756    -198.779    -342.601
  P       65.594    -197.732    -342.220
  C       63.134    -198.324    -341.603
  O       64.517    -198.517    -341.326
  C       62.278    -198.823    -340.443
  O       62.635    -200.169    -340.074
  C       62.421    -198.009    -339.164
  O       61.656    -196.814    -339.211
  C       61.851    -198.973    -338.134
  O       60.416    -198.884    -338.121
  C       62.301    -200.343    -338.674
  N       63.982    -203.868    -335.445
  C       62.704    -203.633    -335.910
  N       61.739    -204.473    -335.473
  N       62.395    -202.663    -336.729
  C       63.466    -201.919    -337.106
  C       64.777    -202.051    -336.714
  C       65.099    -203.113    -335.782
  O       66.209    -203.344    -335.311
  N       65.581    -201.116    -337.315
  C       64.760    -200.435    -338.093
  N       63.463    -200.874    -337.990
  O       64.834    -197.521    -343.613
  O       66.098    -196.449    -341.654
  H       60.091    -199.565    -337.497
  H       64.411    -196.642    -343.632
  H       64.162    -204.626    -334.809
  H       65.054    -199.623    -338.747
  H       61.497    -201.085    -338.620
  H       62.190    -198.757    -337.115
  H       61.918    -205.283    -334.899
  H       63.480    -197.812    -338.942
  H       60.802    -204.337    -335.833
  H       61.228    -198.820    -340.770
  H       62.862    -198.862    -342.513
  H       62.955    -197.263    -341.798
  P       62.414    -195.477    -339.680
  C       63.678    -194.956    -341.884
  O       62.591    -195.617    -341.265
  O       63.895    -195.677    -339.101
  O       61.790    -194.212    -339.194
  H       64.305    -194.813    -338.920
  H       64.596    -195.072    -341.302
  H       63.444    -193.893    -341.997
  H       63.833    -195.392    -342.875
  H       67.236    -200.490    -343.629
  H       66.018    -199.487    -344.381
  H       65.616    -200.445    -342.975

 3  4  5  6  7  8  9  10  11  12  23  26  30  31  33  0
 6-311+G(2d,p)
 ****
 35  36  37  38 0
 6-311+G(2d,p)
 ****
 1  2  13  14  15  16  17  18  19  20  21  22  24  25  27  28  29 0
 3-21G
 ****
 32  34  39  40  41  42  43  44  45  46  47  48  49 0
 3-21G
 ****


