%nproc=1
%NoSave
%Mem=1900MB
#P OB98/GEN NMR

erre ene a

0 1
  C      401.186     212.725     -72.011
  O      400.436     213.071     -73.179
  P      399.109     212.221     -73.488
  C      400.237     210.536     -75.108
  O      399.534     210.727     -73.886
  C      399.893     209.181     -75.743
  O      400.574     209.028     -77.023
  C      400.294     207.978     -74.884
  O      399.381     206.912     -75.149
  C      401.654     207.607     -75.443
  O      402.027     206.273     -75.094
  C      401.413     207.854     -76.934
  N      405.194     205.489     -79.294
  C      404.108     204.971     -78.613
  N      403.996     203.626     -78.583
  N      403.210     205.708     -78.009
  C      403.433     207.042     -78.156
  C      404.471     207.670     -78.798
  C      405.469     206.846     -79.435
  O      406.458     207.245     -80.045
  N      404.363     209.038     -78.703
  C      403.263     209.231     -77.999
  N      402.646     208.050     -77.670
  O      398.594     212.848     -74.869
  O      398.064     212.331     -72.425
  H      402.210     206.268     -74.130
  H      397.795     213.381     -74.713
  H      405.859     204.872     -79.731
  H      402.874     210.188     -77.701
  H      400.883     207.021     -77.414
  H      402.418     208.292     -75.056
  H      404.622     203.003     -79.066
  H      400.319     208.178     -73.803
  H      403.187     203.224     -78.124
  H      398.818     209.152     -75.943
  H      401.315     210.595     -74.933
  H      400.004     211.368     -75.784
  P      398.583     206.307     -73.895
  C      400.500     204.807     -72.979
  O      399.688     205.956     -72.789
  O      398.100     204.870     -74.413
  O      397.446     207.146     -73.420
  H      397.307     204.585     -73.920
  H      401.493     205.122     -73.316
  H      400.067     204.118     -73.712
  H      400.598     204.288     -72.023
  H      402.037     213.368     -71.930
  H      401.512     211.709     -72.085
  H      400.569     212.839     -71.144

 3  4  5  6  7  8  9  10  11  12  23  26  30  31 0
 6-311+G(2d,p)
 ****
 33  35  36  37  38 0
 6-311+G(2d,p)
 ****
 1  2  13  14  15  16  17  18  19  20  21  22  24  25 0
 3-21G
 ****
 27  28  29  32  34  39  40  41  42  43  44  45  46  47  48  49 0
 3-21G
 ****


