%nproc=1
%NoSave
%Mem=1900MB
#P OB98/GEN NMR

erre ene a

0 1
  C      183.017     148.099     181.340
  O      182.000     149.081     181.292
  H      182.784     147.308     180.614
  H      183.059     147.659     182.340
  H      183.986     148.535     181.082
  P      182.257     150.428     182.128
  C      183.597     151.605     180.240
  O      183.616     151.063     181.560
  C      183.864     153.114     180.284
  O      185.023     153.391     181.114
  C      184.158     153.737     178.925
  O      182.956     154.037     178.215
  C      184.875     155.012     179.354
  O      183.907     155.977     179.824
  C      185.738     154.507     180.516
  N      190.506     155.980     179.626
  C      189.403     156.725     180.003
  N      189.596     158.059     180.151
  N      188.217     156.218     180.209
  C      188.170     154.878     180.010
  C      189.189     154.029     179.645
  C      190.505     154.606     179.430
  O      191.520     153.988     179.120
  N      188.759     152.729     179.551
  C      187.478     152.797     179.844
  N      187.069     154.073     180.120
  O      182.690     149.889     183.578
  O      181.097     151.357     182.219
  H      184.398     156.781     180.069
  H      182.332     150.493     184.258
  H      191.403     156.427     179.475
  H      186.811     151.946     179.869
  H      185.869     155.271     181.295
  H      185.419     155.479     178.534
  H      190.474     158.513     179.965
  H      184.839     153.118     178.331
  H      188.809     158.618     180.451
  H      183.003     153.593     180.763
  H      182.616     151.433     179.794
  H      184.364     151.105     179.638
  P      182.938     153.741     176.635
  C      182.033     151.320     176.878
  O      183.119     152.158     176.487
  O      184.355     154.323     176.146
  O      181.791     154.347     175.896
  H      184.310     154.536     175.193
  H      182.299     150.295     176.723
  H      181.170     151.557     176.291
  H      181.815     151.479     177.913

 6  7  8  9  10  11  12  13  14  15  26  29  33  34 0
 6-311+G(2d,p)
 ****
 36  38  39  40  41 0
 6-311+G(2d,p)
 ****
 1  2  3  4  5  16  17  18  19  20  21  22  23  24  25 0
 3-21G
 ****
 27  28  30  31  32  35  37  42  43  44  45  46  47 0
 3-21G
 ****
 48  49 0
 3-21G
 ****


