%nproc=1
%NoSave
%Mem=1900MB
#P OB98/GEN NMR

erre ene a

0 1
  C      -12.855     -40.235     -30.602
  O      -13.604     -41.302     -30.058
  H      -13.535     -39.561     -31.128
  H      -12.116     -40.614     -31.313
  H      -12.354     -39.682     -29.804
  P      -12.782     -42.446     -29.290
  C      -11.473     -43.313     -31.360
  O      -11.414     -42.654     -30.102
  C      -10.095     -43.293     -32.012
  O       -9.643     -41.928     -32.167
  C       -9.012     -43.988     -31.198
  O       -9.069     -45.398     -31.320
  C       -7.759     -43.392     -31.817
  O       -7.376     -44.094     -33.012
  C       -8.201     -41.948     -32.140
  N       -7.657     -40.982     -31.193
  C       -6.307     -40.681     -31.346
  O       -5.598     -41.186     -32.216
  N       -5.783     -39.803     -30.437
  C       -6.453     -39.240     -29.390
  O       -5.906     -38.517     -28.567
  C       -7.881     -39.582     -29.286
  C       -8.408     -40.432     -30.173
  O      -13.621     -43.772     -29.610
  O      -12.613     -42.227     -27.823
  H      -14.160     -44.020     -28.835
  H       -6.519     -43.715     -33.287
  H       -4.803     -39.581     -30.524
  H       -8.446     -39.147     -28.470
  H       -9.454     -40.716     -30.104
  H       -7.865     -41.663     -33.146
  H       -6.910     -43.445     -31.135
  H       -9.069     -43.678     -30.147
  H      -10.176     -43.743     -33.011
  H      -12.183     -42.794     -32.012
  H      -11.819     -44.340     -31.209
  P       -8.784     -46.293     -30.020
  C       -6.363     -46.821     -30.893
  O       -7.190     -46.350     -29.846
  O       -9.170     -47.749     -30.555
  O       -9.530     -45.846     -28.809
  H       -8.940     -47.884     -31.490
  H       -5.339     -46.781     -30.584
  H       -6.499     -46.207     -31.759
  H       -6.626     -47.831     -31.128

 6  7  8  9  10  11  12  13  14  15  16  27  31  32  33  34  35 0
 6-311+G(2d,p)
 ****
 36  37 0
 6-311+G(2d,p)
 ****
 1  2  3  4  5  17  18  19  20  21  22  23  24  25 0
 3-21G
 ****
 26  28  29  30  38  39  40  41  42  43  44  45 0
 3-21G
 ****


