%nproc=1
%NoSave
%Mem=1900MB
#P OB98/GEN NMR

erre ene a

0 1
  C       12.165    -138.430    -127.100
  O       12.331    -137.181    -126.459
  H       13.125    -138.790    -127.479
  H       11.782    -139.150    -126.372
  H       11.447    -138.343    -127.921
  P       12.860    -135.972    -127.372
  C       12.110    -134.934    -129.629
  O       11.992    -136.018    -128.721
  C       11.936    -135.427    -131.061
  O       12.955    -136.395    -131.382
  C       10.608    -136.122    -131.339
  O        9.558    -135.190    -131.546
  C       10.944    -136.875    -132.617
  O       10.892    -135.975    -133.740
  C       12.394    -137.311    -132.359
  N       12.883    -142.239    -133.641
  C       12.875    -141.111    -134.383
  N       12.762    -139.832    -133.968
  C       12.667    -139.777    -132.630
  C       12.681    -140.836    -131.739
  C       12.790    -142.122    -132.293
  N       12.729    -143.275    -131.527
  N       12.545    -140.385    -130.440
  C       12.431    -139.079    -130.550
  N       12.505    -138.664    -131.851
  O       14.308    -136.483    -127.832
  O       12.931    -134.646    -126.693
  H       11.498    -135.239    -133.538
  H       14.985    -136.093    -127.249
  H       12.968    -141.253    -135.454
  H       12.289    -138.399    -129.721
  H       13.014    -137.241    -133.260
  H       10.253    -137.696    -132.827
  H       10.360    -136.844    -130.553
  H       12.073    -134.568    -131.732
  H       13.099    -134.476    -129.523
  H       12.353    -144.075    -132.028
  H       12.396    -143.131    -130.581
  H       11.346    -134.190    -129.387
  P        8.055    -135.692    -131.296
  C        6.744    -136.394    -129.179
  O        8.016    -136.291    -129.806
  O        7.952    -136.988    -132.230
  O        6.990    -134.704    -131.625
  H        7.202    -136.890    -132.849
  H        6.862    -136.805    -128.198
  H        6.111    -137.032    -129.760
  H        6.302    -135.422    -129.107

 6  7  8  9  10  11  12  13  14  15  25  28  32  33  34  35 0
 6-311+G(2d,p)
 ****
 36  39  40 0
 6-311+G(2d,p)
 ****
 1  2  3  4  5  16  17  18  19  20  21  22  23  24 0
 3-21G
 ****
 26  27  29  30  31  37  38  41  42  43  44  45  46  47  48 0
 3-21G
 ****


