%nproc=1
%NoSave
%Mem=1900MB
#P OB98/GEN NMR

erre ene a

0 1
  C     -892.710     658.248    -175.103
  O     -893.130     656.885    -175.138
  P     -892.060     655.764    -174.686
  C     -893.830     654.143    -173.706
  O     -892.860     654.376    -174.710
  C     -894.070     652.655    -173.491
  O     -892.850     652.000    -173.081
  C     -895.090     652.316    -172.429
  O     -896.430     652.387    -172.909
  C     -894.730     650.865    -172.139
  O     -895.270     650.000    -173.146
  C     -893.200     650.898    -172.222
  N     -892.440     648.748    -167.633
  C     -893.220     648.378    -168.691
  N     -893.380     649.012    -169.861
  C     -892.660     650.162    -169.897
  C     -891.860     650.674    -168.887
  C     -891.750     649.912    -167.717
  N     -890.950     650.285    -166.647
  N     -891.300     651.862    -169.294
  C     -891.730     652.060    -170.513
  N     -892.550     651.048    -170.934
  O     -891.870     656.058    -173.128
  O     -890.770     655.796    -175.424
  H     -896.240     650.038    -173.068
  H     -891.010     655.712    -172.814
  H     -893.770     647.468    -168.558
  H     -891.460     652.918    -171.132
  H     -892.790     649.975    -172.687
  H     -895.110     650.513    -171.176
  H     -894.950     652.916    -171.519
  H     -894.370     652.222    -174.468
  H     -894.770     654.629    -173.980
  H     -890.780     649.597    -165.922
  H     -890.290     651.041    -166.786
  H     -893.480     654.608    -172.763
  P     -897.490     653.156    -171.967
  C     -899.120     653.008    -173.990
  O     -898.910     652.826    -172.600
  O     -897.250     654.698    -172.345
  O     -897.320     652.888    -170.519
  H     -897.510     655.286    -171.595
  H     -900.000     652.461    -174.303
  H     -898.260     652.643    -174.575
  H     -899.260     654.080    -174.221
  H     -893.513     658.877    -175.426
  H     -891.871     658.379    -175.754
  H     -892.431     658.510    -174.104

 3  4  5  6  7  8  9  10  11  12  22  25  29  30  31  32 0
 6-311+G(2d,p)
 ****
 33  36  37 0
 6-311+G(2d,p)
 ****
 1  2  13  14  15  16  17  18  19  20  21  23  24  26 0
 3-21G
 ****
 27  28  34  35  38  39  40  41  42  43  44  45  46  47  48 0
 3-21G
 ****


