%nproc=1
%NoSave
%Mem=1900MB
#P OB98/GEN NMR

erre ene a

0 1
  C     -216.562     181.760    -769.210
  O     -215.792     181.553    -768.044
  P     -214.315     180.920    -768.160
  C     -212.892     182.509    -766.720
  O     -213.519     181.234    -766.795
  C     -212.352     182.775    -765.306
  O     -213.451     183.034    -764.383
  C     -211.612     181.590    -764.716
  O     -210.329     181.406    -765.288
  C     -211.595     181.966    -763.233
  O     -210.549     182.909    -762.961
  C     -212.994     182.641    -763.077
  N     -213.951     181.754    -762.403
  C     -214.954     182.365    -761.622
  O     -214.924     183.593    -761.472
  N     -215.916     181.589    -761.078
  C     -215.841     180.300    -761.157
  N     -216.867     179.572    -760.621
  C     -214.728     179.592    -761.820
  C     -213.826     180.379    -762.440
  O     -213.577     181.255    -769.418
  O     -214.580     179.334    -768.064
  H     -214.103     178.887    -768.800
  H     -209.706     182.430    -763.091
  H     -214.664     178.510    -761.812
  H     -212.980     179.961    -762.967
  H     -212.889     183.568    -762.487
  H     -211.437     181.093    -762.581
  H     -212.199     180.656    -764.840
  H     -211.711     183.659    -765.338
  H     -217.613     180.078    -760.186
  H     -213.626     183.300    -766.980
  H     -217.066     178.612    -760.911
  H     -212.073     182.561    -767.448
  P     -209.670     179.941    -765.194
  C     -208.191     180.438    -767.286
  O     -208.238     180.010    -765.935
  O     -210.568     179.065    -766.216
  O     -209.666     179.355    -763.827
  H     -210.693     178.163    -765.854
  H     -207.179     180.771    -767.507
  H     -208.884     181.278    -767.463
  H     -208.454     179.606    -767.950
  H     -217.507     182.184    -768.943
  H     -216.718     180.824    -769.705
  H     -216.044     182.428    -769.866

 3  4  5  6  7  8  9  10  11  12  13  24  27  28  29  30  32 0
 6-311+G(2d,p)
 ****
 34  35 0
 6-311+G(2d,p)
 ****
 1  2  14  15  16  17  18  19  20  21  22  23  25  26 0
 3-21G
 ****
 31  33  36  37  38  39  40  41  42  43  44  45  46 0
 3-21G
 ****


