%nproc=1
%NoSave
%Mem=1900MB
#P OB98/GEN NMR

erre ene a

0 1
  C       11.000     233.785     309.819
  O       11.243     234.886     310.672
  H       11.065     234.123     308.782
  H        9.997     233.385     309.998
  H       11.746     233.003     309.984
  P       11.213     234.592     312.249
  C        9.318     235.959     313.389
  O        9.687     234.764     312.712
  C        8.905     237.020     312.372
  O        7.715     236.589     311.672
  C        8.549     238.362     312.992
  O        9.694     239.120     313.339
  C        7.722     238.988     311.882
  O        8.554     239.601     310.889
  C        6.989     237.778     311.288
  N        2.425     240.063     311.135
  C        3.590     240.332     310.506
  N        4.763     239.666     310.591
  C        4.642     238.603     311.406
  C        3.519     238.202     312.110
  C        2.365     238.983     311.947
  N        1.185     238.725     312.603
  N        3.800     237.086     312.872
  C        5.065     236.811     312.628
  N        5.614     237.699     311.746
  O       11.947     235.874     312.868
  O       11.868     233.320     312.670
  H        9.151     240.207     311.371
  H       12.872     235.648     313.078
  H        3.586     241.203     309.858
  H        5.625     235.993     313.068
  H        6.965     237.804     310.193
  H        7.056     239.755     312.276
  H        7.906     238.214     313.869
  H        9.711     237.129     311.635
  H       10.172     236.327     313.970
  H        8.492     235.739     314.074
  H        0.418     239.366     312.495
  H        1.163     237.992     313.302
  P        9.493     240.374     314.316
  C        9.842     242.697     313.183
  O        8.973     241.597     313.421
  O       10.984     240.798     314.710
  O        8.658     240.093     315.520
  H       11.007     241.112     315.635
  H        9.343     243.420     312.572
  H       10.723     242.354     312.682
  H       10.114     243.145     314.116

 6  7  8  9  10  11  12  13  14  15  25  28  32  33  34  35 0
 6-311+G(2d,p)
 ****
 36  37  40 0
 6-311+G(2d,p)
 ****
 1  2  3  4  5  16  17  18  19  20  21  22  23  24 0
 3-21G
 ****
 26  27  29  30  31  38  39 41  42  43  44  45  46  47  48 0
 3-21G
 ****


