%nproc=1
%NoSave
%Mem=1900MB
#P OB98/GEN NMR

erre ene a

0 1
  C      444.041      63.441     368.021
  O      444.568      64.739     367.845
  H      443.686      63.343     369.049
  H      444.820      62.693     367.847
  H      443.201      63.265     367.343
  P      444.993      65.209     366.373
  C      443.007      65.624     364.776
  O      443.808      66.142     365.828
  C      442.757      66.698     363.707
  O      441.827      67.686     364.250
  C      444.022      67.461     363.269
  O      443.823      67.853     361.903
  C      443.969      68.659     364.202
  O      444.872      69.673     363.835
  C      442.467      68.973     364.123
  N      441.968      69.898     365.132
  C      441.783      71.227     364.759
  O      442.011      71.672     363.635
  N      441.322      72.062     365.743
  C      441.019      71.707     367.024
  O      440.578      72.496     367.852
  C      441.239      70.293     367.360
  C      441.691      69.463     366.417
  O      445.423      64.125     365.443
  O      446.174      66.259     366.642
  H      447.035      65.833     366.467
  H      445.780      69.301     363.815
  H      441.177      73.030     365.487
  H      441.020      69.976     368.372
  H      441.857      68.412     366.631
  H      442.221      69.360     363.130
  H      444.253      68.360     365.215
  H      444.935      66.866     363.349
  H      442.259      66.230     362.849
  H      442.052      65.301     365.202
  H      443.512      64.762     364.332
  P      444.496      67.097     360.661
  C      444.197      64.662     359.819
  O      443.553      65.852     360.265
  O      445.923      66.720     360.879
  O      444.350      68.097     359.421
  H      445.053      67.924     358.771
  H      443.459      63.921     359.591
  H      444.844      64.296     360.589
  H      444.772      64.875     358.942

 6  7  8  9  10  11  12  13  14  15  16  27  31  32  33  34  35 0
 6-311+G(2d,p)
 ****
 36  37 0
 6-311+G(2d,p)
 ****
 1  2  3  4  5  17  18  19  20  21  22  23  24  25 0
 3-21G
 ****
 26  28  29  30  38  39  40  41  42  43  44  45 0
 3-21G
 ****


