%nproc=1
%NoSave
%Mem=1900MB
#P OB98/GEN NMR

erre ene a

0 1
  C       -6.557    -104.567    -109.238
  O       -7.030    -105.631    -108.396
  P       -6.924    -107.129    -108.967
  C       -9.447    -107.258    -109.676
  O       -8.402    -107.741    -108.841
  C      -10.802    -107.692    -109.122
  O      -11.059    -107.059    -107.842
  C      -11.986    -107.316    -110.004
  O      -12.069    -108.157    -111.147
  C      -13.139    -107.460    -109.020
  O      -13.517    -108.841    -108.887
  C      -12.496    -106.962    -107.702
  N      -12.908    -105.611    -107.340
  C      -14.057    -105.516    -106.555
  O      -14.713    -106.497    -106.202
  N      -14.442    -104.246    -106.210
  C      -13.820    -103.092    -106.586
  O      -14.202    -101.980    -106.232
  C      -12.642    -103.251    -107.454
  C      -12.247    -104.482    -107.790
  O       -6.094    -107.841    -107.803
  O       -6.305    -107.192    -110.325
  H       -6.307    -107.502    -106.917
  H      -13.856    -109.119    -109.761
  H      -15.260    -104.158    -105.630
  H      -12.139    -102.354    -107.793
  H      -11.380    -104.623    -108.431
  H      -12.766    -107.631    -106.875
  H      -14.030    -106.903    -109.331
  H      -11.897    -106.269    -110.321
  H      -10.776    -108.784    -108.967
  H       -9.328    -107.657    -110.688
  H       -9.374    -106.166    -109.740
  P      -12.749    -107.528    -112.464
  C      -13.912    -109.696    -113.349
  O      -12.901    -108.729    -113.513
  O      -11.541    -106.647    -113.042
  O      -13.995    -106.753    -112.183
  H      -10.688    -107.113    -113.027
  H      -14.078    -110.200    -114.309
  H      -14.851    -109.241    -113.028
  H      -13.593    -110.438    -112.613
  H       -6.687    -103.631    -108.737
  H       -7.113    -104.562    -110.152
  H       -5.519    -104.716    -109.452

 3  4  5  6  7  8  9  10  11  12  13  24  28  29  30  31  32 0
 6-311+G(2d,p)
 ****
 33  34 0
 6-311+G(2d,p)
 ****
 1  2  14  15  16  17  18  19  20  21  22  23  25  26  27 0
 3-21G
 ****
 35  36  37  38  39  40  41  42  43  44  45 0
 3-21G
 ****


