%nproc=1
%NoSave
%Mem=1900MB
#P OB98/GEN NMR

erre ene a

0 1
  C       20.476     242.309      65.683
  O       19.682     242.291      66.881
  P       19.001     240.912      67.348
  C       19.249     241.019      69.950
  O       18.394     241.112      68.819
  C       18.463     241.324      71.229
  O       18.383     242.754      71.444
  C       17.019     240.845      71.210
  O       16.924     239.446      71.424
  C       16.412     241.672      72.336
  O       16.671     241.069      73.616
  C       17.175     243.004      72.197
  N       16.369     244.053      71.580
  C       15.595     244.825      72.438
  O       15.524     244.622      73.649
  N       14.869     245.826      71.849
  C       14.791     246.080      70.509
  O       14.106     246.980      70.041
  C       15.567     245.178      69.647
  C       16.303     244.219      70.211
  O       20.281     239.992      67.641
  O       18.100     240.262      66.349
  H       17.638     240.936      73.672
  H       20.047     239.054      67.503
  H       14.324     246.417      72.458
  H       15.515     245.331      68.576
  H       16.883     243.546      69.586
  H       17.504     243.354      73.184
  H       15.326     241.771      72.243
  H       16.544     241.124      70.263
  H       19.006     240.884      72.076
  H       20.062     241.742      69.848
  H       19.676     240.013      69.992
  P       15.843     238.653      70.537
  C       17.375     236.539      70.396
  O       16.144     237.101      70.798
  O       16.391     238.943      69.061
  O       14.442     239.104      70.781
  H       17.362     239.005      69.036
  H       18.192     237.259      70.474
  H       17.293     236.192      69.361
  H       17.595     235.683      71.038
  H       20.852     243.297      65.519
  H       19.872     242.014      64.850
  H       21.295     241.629      65.788

 3  4  5  6  7  8  9  10  11  12  13  23  28  29  30  31  32 0
 6-311+G(2d,p)
 ****
 33  34 0
 6-311+G(2d,p)
 ****
 1  2  14  15  16  17  18  19  20  21  22  24  25  26 0
 3-21G
 ****
 27  35  36  37  38  39  40  41  42  43  44  45 0
 3-21G
 ****


