%nproc=1
%NoSave
%Mem=1900MB
#P OB98/GEN NMR

erre ene a

0 1
  C     1108.685    -891.560       0.490
  O     1107.885    -892.730       0.675
  P     1108.179    -894.130      -0.057
  C     1107.708    -895.870       1.827
  O     1108.656    -895.180       1.060
  C     1107.586    -895.330       3.287
  O     1106.933    -894.020       3.254
  C     1106.700    -896.230       4.129
  O     1107.246    -897.390       4.728
  C     1105.984    -895.280       5.092
  O     1106.654    -895.190       6.351
  C     1106.027    -893.930       4.339
  N     1101.956    -890.890       4.976
  C     1103.067    -891.030       5.787
  N     1103.098    -890.280       6.908
  N     1104.072    -891.810       5.482
  C     1103.869    -892.570       4.372
  C     1102.807    -892.530       3.508
  C     1101.720    -891.590       3.791
  O     1100.730    -891.430       3.124
  N     1102.952    -893.440       2.496
  C     1104.098    -894.030       2.738
  N     1104.696    -893.530       3.902
  O     1108.994    -894.050      -1.321
  O     1106.702    -894.650      -0.458
  H     1106.843    -896.100       6.648
  H     1106.818    -895.150      -1.304
  H     1101.226    -890.250       5.217
  H     1104.547    -894.810       2.141
  H     1106.392    -893.130       5.003
  H     1104.969    -895.640       5.313
  H     1102.310    -889.750       7.234
  H     1105.892    -896.600       3.449
  H     1103.804    -890.550       7.583
  H     1108.578    -895.140       3.728
  H     1108.019    -896.920       1.858
  H     1106.733    -895.860       1.343
  P     1107.656    -898.740       3.972
  C     1110.229    -898.630       4.128
  O     1109.098    -898.470       3.286
  O     1106.677    -898.810       2.712
  O     1107.575    -900.000       4.815
  H     1106.680    -899.720       2.332
  H     1111.082    -898.140       3.664
  H     1110.469    -899.690       4.250
  H     1110.049    -898.160       5.130
  H     1108.290    -890.761       1.081
  H     1108.673    -891.280      -0.543
  H     1109.691    -891.764       0.793

 3  4  5  6  7  8  9  10  11  12  23  26  30  31 0
 6-311+G(2d,p)
 ****
 33  35  36  37  38 0
 6-311+G(2d,p)
 ****
 1  2  13  14  15  16  17  18  19  20  21  22  24  25 0
 3-21G
 ****
 27  28  29  32  34  39  40  41  42  43  44  45  46  47  48  49 0
 3-21G
 ****


