%nproc=1
%NoSave
%Mem=1900MB
#P OB98/GEN NMR

erre ene a

0 1
  C      177.601     -42.940    -894.760
  O      177.772     -42.044    -893.660
  P      178.704     -40.752    -893.920
  C      176.765     -39.295    -894.880
  O      178.024     -39.912    -895.120
  C      176.863     -37.782    -895.080
  O      177.786     -37.196    -894.140
  C      177.375     -37.359    -896.450
  O      176.361     -37.416    -897.430
  C      177.787     -35.917    -896.180
  O      176.631     -35.058    -896.250
  C      178.313     -35.987    -894.730
  N      182.587     -33.299    -895.180
  C      181.277     -32.903    -895.340
  N      181.065     -31.603    -895.660
  N      180.250     -33.716    -895.230
  C      180.613     -34.982    -894.890
  C      181.875     -35.494    -894.700
  C      182.993     -34.588    -894.870
  O      184.177     -34.887    -894.770
  N      181.828     -36.815    -894.350
  C      180.548     -37.102    -894.320
  N      179.762     -36.026    -894.650
  O      180.007     -41.380    -894.610
  O      179.037     -39.982    -892.690
  H      175.999     -35.390    -895.580
  H      180.779     -40.813    -894.450
  H      183.335     -32.631    -895.300
  H      180.132     -38.068    -894.050
  H      177.951     -35.142    -894.130
  H      178.508     -35.536    -896.910
  H      181.797     -30.913    -895.700
  H      178.251     -37.954    -896.740
  H      180.101     -31.289    -895.750
  H      175.872     -37.354    -894.900
  H      176.433     -39.505    -893.860
  H      176.020     -39.731    -895.570
  P      176.624     -38.340    -898.720
  C      174.801     -40.002    -897.940
  O      176.150     -39.806    -898.300
  O      178.230     -38.448    -898.760
  O      176.068     -37.790    -900.000
  H      178.531     -38.570    -899.680
  H      174.119     -39.467    -898.610
  H      174.645     -39.662    -896.910
  H      174.569     -41.076    -897.990
  H      176.967     -43.750    -894.465
  H      178.554     -43.323    -895.059
  H      177.153     -42.417    -895.579

 3  4  5  6  7  8  9  10  11  12  23  26  30  31  33  0
 6-311+G(2d,p)
 ****
 35  36  37  38 0
 6-311+G(2d,p)
 ****
 1  2  13  14  15  16  17  18  19  20  21  22  24  25  27  28  29 0
 3-21G
 ****
 32  34  39  40  41  42  43  44  45  46  47  48  49 0
 3-21G
 ****


