%nproc=1
%NoSave
%Mem=1900MB
#P OB98/GEN NMR

erre ene a

0 1
  C      881.774    -286.931     427.084
  O      882.510    -287.381     428.203
  H      880.948    -286.313     427.439
  H      881.375    -287.770     426.518
  H      882.410    -286.317     426.434
  P      883.725    -288.401     427.958
  C      885.523    -287.230     429.393
  O      884.649    -288.339     429.268
  C      885.769    -286.896     430.870
  O      884.604    -286.178     431.394
  C      885.985    -288.138     431.765
  O      886.839    -287.744     432.845
  C      884.569    -288.385     432.274
  O      884.563    -289.275     433.357
  C      884.109    -286.950     432.519
  N      882.660    -286.833     432.648
  C      882.131    -287.022     433.935
  O      882.893    -287.266     434.879
  N      880.779    -286.934     434.114
  C      880.006    -286.768     433.082
  N      878.661    -286.716     433.330
  C      880.509    -286.634     431.707
  C      881.838    -286.672     431.557
  O      884.454    -288.243     426.660
  O      883.037    -289.845     428.068
  H      884.667    -290.206     433.050
  H      882.942    -290.232     427.179
  H      879.822    -286.506     430.879
  H      882.306    -286.579     430.576
  H      884.568    -286.544     433.424
  H      883.955    -288.843     431.484
  H      886.407    -288.984     431.226
  H      886.622    -286.210     430.943
  H      878.359    -286.827     434.289
  H      885.055    -286.375     428.891
  H      877.966    -286.604     432.603
  H      886.483    -287.443     428.909
  P      887.598    -288.812     433.773
  C      889.975    -287.928     433.260
  O      888.990    -288.182     434.260
  O      887.727    -290.170     433.175
  O      886.730    -288.870     435.126
  H      886.798    -289.761     435.512
  H      890.848    -287.511     433.717
  H      889.584    -287.238     432.542
  H      890.231    -288.845     432.771

 6  7  8  9  10  11  12  13  14  15  16  26  30  31  32  33  35 0
 6-311+G(2d,p)
 ****
 37  38 0
 6-311+G(2d,p)
 ****
 1  2  3  4  5  17  18  19  20  21  22  23  24  25 0
 3-21G
 ****
 27  28  29  34  36  39  40  41  42  43  44  45  46 0
 3-21G
 ****


