%nproc=1
%NoSave
%Mem=1900MB
#P OB98/GEN NMR

erre ene a

0 1
  C       -8.512     307.392     252.657
  O       -9.254     308.434     253.271
  P       -8.753     308.993     254.689
  C      -10.351     307.501     256.098
  O       -9.963     308.811     255.733
  C      -11.139     307.521     257.413
  O      -10.333     308.146     258.456
  C      -12.464     308.301     257.331
  O      -13.404     307.652     258.200
  C      -12.083     309.647     257.915
  O      -13.200     310.404     258.351
  C      -11.123     309.205     259.028
  N      -10.290     310.299     259.526
  C      -10.737     310.981     260.651
  O      -11.786     310.719     261.242
  N       -9.959     312.033     261.056
  C       -8.862     312.517     260.413
  O       -8.277     313.541     260.759
  C       -8.428     311.757     259.225
  C       -9.152     310.702     258.846
  O       -8.686     310.572     254.456
  O       -7.447     308.438     255.151
  H      -12.858     311.190     258.806
  H       -7.765     310.858     254.288
  H      -10.262     312.541     261.879
  H       -7.548     312.101     258.701
  H       -8.874     310.134     257.966
  H      -11.694     308.767     259.857
  H      -11.562     310.241     257.148
  H      -12.868     308.371     256.318
  H      -11.331     306.484     257.725
  H       -9.459     306.887     256.234
  H      -10.950     307.050     255.295
  P      -14.684     306.944     257.531
  C      -16.500     308.700     258.230
  O      -15.960     307.406     258.386
  O      -14.448     305.424     257.976
  O      -14.774     307.132     256.049
  H      -14.165     305.339     258.904
  H      -16.409     309.047     257.193
  H      -15.977     309.390     258.891
  H      -17.554     308.679     258.498
  H       -8.968     307.131     251.725
  H       -8.499     306.537     253.300
  H       -7.509     307.723     252.483

 3  4  5  6  7  8  9  10  11  12  13  23  28  29  30  31  32 0
 6-311+G(2d,p)
 ****
 33  34 0
 6-311+G(2d,p)
 ****
 1  2  14  15  16  17  18  19  20  21  22  24  25  26 0
 3-21G
 ****
 27  35  36  37  38  39  40  41  42  43  44  45 0
 3-21G
 ****


