%nproc=1
%NoSave
%Mem=1900MB
#P OB98/GEN NMR

erre ene a

0 1
  C     1694.374    -446.690     956.194
  O     1694.108    -447.926     955.541
  P     1692.897    -448.818     956.116
  C     1690.862    -448.581     954.485
  O     1691.550    -448.091     955.624
  C     1691.372    -447.874     953.231
  O     1692.793    -448.154     953.024
  C     1690.694    -448.305     951.954
  O     1689.391    -447.756     951.840
  C     1691.676    -447.808     950.889
  O     1691.484    -446.402     950.662
  C     1693.035    -448.053     951.590
  N     1693.735    -449.227     951.094
  C     1693.877    -449.304     949.705
  O     1693.419    -448.457     948.929
  N     1694.531    -450.404     949.237
  C     1695.018    -451.430     949.992
  O     1695.611    -452.384     949.515
  C     1694.805    -451.307     951.441
  C     1694.180    -450.240     951.922
  O     1692.984    -448.478     957.685
  O     1693.025    -450.261     955.768
  H     1693.257    -447.558     957.858
  H     1690.532    -446.290     950.465
  H     1694.644    -450.479     948.246
  H     1695.164    -452.120     952.072
  H     1694.011    -450.143     952.986
  H     1693.681    -447.175     951.467
  H     1691.565    -448.311     949.930
  H     1690.635    -449.397     951.912
  H     1691.264    -446.793     953.369
  H     1689.790    -448.391     954.584
  H     1691.004    -449.661     954.418
  P     1688.161    -448.811     951.706
  C     1687.273    -448.827     954.170
  O     1687.977    -449.492     953.152
  O     1688.828    -449.965     950.826
  O     1686.925    -448.212     951.111
  H     1689.730    -450.180     951.120
  H     1686.953    -449.556     954.915
  H     1686.379    -448.330     953.784
  H     1687.923    -448.085     954.647
  H     1695.197    -446.203     955.714
  H     1694.617    -446.874     957.220
  H     1693.508    -446.064     956.139

 3  4  5  6  7  8  9  10  11  12  13  24  28  29  30  31  32 0
 6-311+G(2d,p)
 ****
 33  34 0
 6-311+G(2d,p)
 ****
 1  2  14  15  16  17  18  19  20  21  22  23  25  26  27 0
 3-21G
 ****
 35  36  37  38  39  40  41  42  43  44  45 0
 3-21G
 ****


