%nproc=1
%NoSave
%Mem=1900MB
#P OB98/GEN NMR

erre ene a

0 1
  C      177.026    -201.303     -35.161
  O      178.420    -201.097     -35.263
  H      176.535    -200.332     -35.043
  H      176.800    -201.920     -34.286
  H      176.643    -201.785     -36.064
  P      179.325    -202.387     -35.560
  C      180.305    -202.494     -33.146
  O      179.527    -203.131     -34.148
  C      179.992    -203.104     -31.780
  O      180.826    -202.454     -30.782
  C      178.531    -202.916     -31.348
  O      178.099    -204.077     -30.639
  C      178.597    -201.726     -30.402
  O      177.519    -201.666     -29.480
  C      179.962    -201.961     -29.739
  N      180.510    -200.747     -29.141
  C      180.078    -200.410     -27.863
  O      179.328    -201.097     -27.170
  N      180.546    -199.217     -27.376
  C      181.364    -198.344     -28.031
  O      181.733    -197.276     -27.551
  C      181.774    -198.749     -29.383
  C      181.336    -199.914     -29.868
  O      180.775    -201.764     -35.850
  O      178.854    -203.272     -36.662
  H      180.880    -201.578     -36.804
  H      177.380    -202.567     -29.121
  H      180.246    -198.956     -26.447
  H      182.415    -198.073     -29.937
  H      181.614    -200.235     -30.864
  H      179.882    -202.747     -28.978
  H      178.606    -200.792     -30.974
  H      177.862    -202.725     -32.191
  H      180.268    -204.170     -31.790
  H      180.061    -201.427     -33.131
  H      181.370    -202.615     -33.382
  P      177.374    -205.234     -31.487
  C      174.962    -204.365     -30.973
  O      175.962    -204.625     -31.946
  O      177.003    -206.283     -30.341
  O      178.233    -205.771     -32.589
  H      176.740    -205.865     -29.502
  H      174.093    -203.964     -31.453
  H      175.333    -203.659     -30.260
  H      174.705    -205.276     -30.473

 6  7  8  9  10  11  12  13  14  15  16  27  31  32  33  34  35 0
 6-311+G(2d,p)
 ****
 36  37 0
 6-311+G(2d,p)
 ****
 1  2  3  4  5  17  18  19  20  21  22  23  24  25 0
 3-21G
 ****
 26  28  29  30  38  39  40  41  42  43  44  45 0
 3-21G
 ****


