%nproc=1
%NoSave
%Mem=1900MB
#P OB98/GEN NMR

erre ene a

0 1
  C       19.684    -375.649      21.705
  O       18.526    -376.335      22.138
  H       20.566    -376.194      22.053
  H       19.702    -374.640      22.128
  H       19.709    -375.597      20.613
  P       17.119    -375.698      21.709
  C       15.914    -375.295      19.434
  O       17.030    -375.845      20.113
  C       15.633    -376.079      18.145
  O       16.785    -375.946      17.257
  C       15.420    -377.587      18.366
  O       14.554    -378.066      17.325
  C       16.825    -378.133      18.150
  O       16.805    -379.531      17.985
  C       17.246    -377.283      16.954
  N       21.240    -380.048      15.350
  C       19.918    -380.322      15.400
  N       18.913    -379.532      15.830
  C       19.379    -378.329      16.213
  C       20.699    -377.899      16.206
  C       21.659    -378.824      15.751
  N       23.008    -378.548      15.700
  N       20.790    -376.600      16.676
  C       19.547    -376.256      16.959
  N       18.668    -377.272      16.705
  O       17.339    -374.130      21.937
  O       15.928    -376.209      22.454
  H       17.669    -379.859      17.658
  H       17.005    -373.870      22.816
  H       19.630    -381.313      15.061
  H       19.237    -375.298      17.357
  H       16.749    -377.602      16.032
  H       17.461    -377.924      19.017
  H       14.990    -377.826      19.340
  H       14.781    -375.624      17.628
  H       16.130    -374.249      19.192
  H       15.033    -375.336      20.081
  H       23.631    -379.266      15.379
  H       23.335    -377.645      16.016
  P       12.961    -378.037      17.557
  C       11.021    -376.329      17.125
  O       12.421    -376.570      17.193
  O       12.857    -378.036      19.158
  O       12.200    -379.181      16.977
  H       12.016    -378.450      19.430
  H       10.847    -375.304      16.872
  H       10.576    -376.542      18.074
  H       10.586    -376.959      16.378

 6  7  8  9  10  11  12  13  14  15  25  28  32  33  34  35 0
 6-311+G(2d,p)
 ****
 36  37  40 0
 6-311+G(2d,p)
 ****
 1  2  3  4  5  16  17  18  19  20  21  22  23  24 0
 3-21G
 ****
 26  27  29  30  31  38  39 41  42  43  44  45  46  47  48 0
 3-21G
 ****


