%nproc=1
%NoSave
%Mem=1900MB
#P OB98/GEN NMR

erre ene a

0 1
  C      401.775     549.364     448.358
  O      400.517     549.819     448.882
  P      400.417     550.984     449.973
  C      398.429     550.051     451.326
  O      398.899     551.094     450.476
  C      396.938     550.186     451.633
  O      396.658     551.452     452.262
  C      396.029     550.131     450.402
  O      395.847     548.794     449.980
  C      394.773     550.814     450.930
  O      393.980     549.894     451.700
  C      395.362     551.902     451.853
  N      392.972     556.349     451.005
  C      392.625     555.260     451.724
  N      393.310     554.113     451.898
  C      394.486     554.169     451.249
  C      394.978     555.202     450.469
  C      394.165     556.344     450.361
  N      394.517     557.446     449.613
  N      396.215     554.883     449.947
  C      396.476     553.679     450.417
  N      395.456     553.198     451.202
  O      401.012     552.283     449.543
  O      401.187     550.410     451.262
  H      393.242     550.396     452.090
  H      401.557     551.144     451.780
  H      391.664     555.320     452.231
  H      397.373     553.113     450.203
  H      394.762     552.027     452.759
  H      394.138     551.209     450.137
  H      396.453     550.735     449.597
  H      396.660     549.397     452.344
  H      399.005     550.077     452.259
  H      393.858     558.207     449.551
  H      395.377     557.430     449.087
  H      398.621     549.088     450.829
  P      395.767     548.451     448.422
  C      394.128     546.588     449.098
  O      395.257     546.933     448.294
  O      396.991     548.765     447.628
  O      394.508     549.289     447.910
  H      394.642     549.534     446.969
  H      394.457     546.395     450.123
  H      393.684     545.680     448.685
  H      393.385     547.391     449.090
  H      401.604     548.584     447.646
  H      402.380     548.991     449.157
  H      402.278     550.179     447.880

 3  4  5  6  7  8  9  10  11  12  22  25  29  30  31  32 0
 6-311+G(2d,p)
 ****
 33  36  37 0
 6-311+G(2d,p)
 ****
 1  2  13  14  15  16  17  18  19  20  21  23  24  26 0
 3-21G
 ****
 27  28  34  35  38  39  40  41  42  43  44  45  46  47  48 0
 3-21G
 ****


