%nproc=1
%NoSave
%Mem=1900MB
#P OB98/GEN NMR

erre ene a

0 1
  C     -225.926     -26.417    -129.750
  O     -224.969     -26.944    -128.856
  H     -225.598     -25.425    -130.070
  H     -226.894     -26.323    -129.252
  H     -226.020     -27.058    -130.630
  P     -225.242     -28.418    -128.277
  C     -227.243     -27.663    -126.794
  O     -226.808     -28.434    -127.906
  C     -228.592     -28.178    -126.284
  O     -229.004     -27.383    -125.146
  C     -229.704     -28.107    -127.332
  O     -230.475     -29.309    -127.284
  C     -230.540     -26.914    -126.907
  O     -231.891     -27.015    -127.350
  C     -230.344     -26.913    -125.386
  N     -230.551     -25.585    -124.812
  C     -231.100     -25.533    -123.527
  O     -231.397     -26.574    -122.937
  N     -231.350     -24.310    -122.961
  C     -231.131     -23.229    -123.643
  N     -231.421     -22.047    -123.036
  C     -230.599     -23.237    -125.020
  C     -230.330     -24.436    -125.534
  O     -224.517     -28.382    -126.852
  O     -224.799     -29.539    -129.156
  H     -232.324     -26.145    -127.203
  H     -224.420     -29.289    -126.473
  H     -230.448     -22.311    -125.554
  H     -229.938     -24.538    -126.540
  H     -231.040     -27.615    -124.906
  H     -230.114     -25.999    -127.338
  H     -229.326     -27.972    -128.344
  H     -228.455     -29.202    -125.917
  H     -231.794     -22.080    -122.096
  H     -227.342     -26.618    -127.103
  H     -231.318     -21.147    -123.483
  H     -226.498     -27.733    -125.994
  P     -230.374     -30.259    -128.576
  C     -232.428     -29.434    -129.926
  O     -231.013     -29.460    -129.814
  O     -231.438     -31.415    -128.273
  O     -229.002     -30.795    -128.817
  H     -230.988     -32.211    -127.935
  H     -232.707     -28.870    -130.791
  H     -232.847     -28.978    -129.053
  H     -232.797     -30.434    -130.018

 6  7  8  9  10  11  12  13  14  15  16  26  30  31  32  33  35 0
 6-311+G(2d,p)
 ****
 37  38 0
 6-311+G(2d,p)
 ****
 1  2  3  4  5  17  18  19  20  21  22  23  24  25 0
 3-21G
 ****
 27  28  29  34  36  39  40  41  42  43  44  45  46 0
 3-21G
 ****


