%nproc=1
%NoSave
%Mem=1900MB
#P OB98/GEN NMR

erre ene a

0 1
  C      -89.230      38.158     423.029
  O      -87.914      38.461     423.480
  P      -86.575      37.818     422.899
  C      -84.920      39.654     423.784
  O      -85.343      38.296     423.796
  C      -83.565      39.816     424.492
  O      -83.766      39.649     425.927
  C      -82.543      38.758     424.055
  O      -81.230      39.279     423.858
  C      -82.706      37.671     425.100
  O      -81.595      36.792     425.188
  C      -83.019      38.484     426.358
  N      -82.961      34.738     429.824
  C      -81.998      35.086     428.891
  N      -80.880      34.327     428.861
  N      -82.133      36.074     428.052
  C      -83.325      36.698     428.130
  C      -84.362      36.439     428.999
  C      -84.187      35.375     429.965
  O      -84.995      35.039     430.824
  N      -85.417      37.291     428.794
  C      -85.031      38.051     427.787
  N      -83.762      37.734     427.356
  O      -86.400      37.895     421.419
  O      -86.706      36.253     423.286
  H      -81.788      36.132     425.879
  H      -86.250      35.756     422.574
  H      -82.792      33.980     430.468
  H      -85.617      38.846     427.344
  H      -82.114      38.832     426.857
  H      -83.574      37.061     424.814
  H      -80.770      33.478     429.400
  H      -82.804      38.350     423.071
  H      -80.291      34.444     428.040
  H      -83.192      40.833     424.318
  H      -85.689      40.218     424.323
  H      -84.878      40.041     422.766
  P      -80.559      39.811     422.513
  C      -79.296      41.643     423.792
  O      -79.193      40.560     422.887
  O      -81.498      41.007     422.024
  O      -80.423      38.784     421.434
  H      -81.877      40.792     421.144
  H      -78.370      42.222     423.754
  H      -79.437      41.263     424.804
  H      -80.133      42.294     423.522
  H      -89.940      38.730     423.590
  H      -89.423      37.115     423.168
  H      -89.316      38.402     421.991

 3  4  5  6  7  8  9  10  11  12  23  26  30  31 0
 6-311+G(2d,p)
 ****
 33  35  36  37  38 0
 6-311+G(2d,p)
 ****
 1  2  13  14  15  16  17  18  19  20  21  22  24  25 0
 3-21G
 ****
 27  28  29  32  34  39  40  41  42  43  44  45  46  47  48  49 0
 3-21G
 ****


