%nproc=1
%NoSave
%Mem=1900MB
#P OB98/GEN NMR

erre ene a

0 1
  C       -3.104      69.171      78.840
  O       -1.767      69.107      78.335
  P       -0.597      69.607      79.321
  C        1.217      71.474      79.239
  O        0.008      70.956      78.698
  C        1.886      72.430      78.256
  O        2.485      71.712      77.161
  C        0.935      73.427      77.605
  O        0.648      74.519      78.467
  C        1.760      73.883      76.410
  O        2.684      74.910      76.816
  C        2.515      72.603      76.016
  N        3.116      71.320      71.149
  C        3.946      72.044      71.984
  N        5.114      72.462      71.449
  N        3.658      72.331      73.225
  C        2.470      71.824      73.632
  C        1.558      71.096      72.901
  C        1.878      70.811      71.515
  O        1.161      70.203      70.726
  N        0.469      70.746      73.658
  C        0.732      71.240      74.854
  N        1.929      71.914      74.884
  O        0.563      68.534      79.071
  O       -1.001      69.675      80.754
  H        3.098      74.606      77.648
  H        1.128      68.461      79.865
  H        3.383      71.136      70.196
  H        0.097      71.132      75.723
  H        3.568      72.806      75.791
  H        1.145      74.310      75.610
  H        5.434      72.216      70.525
  H        0.021      72.927      77.258
  H        5.753      72.963      72.059
  H        2.680      72.969      78.794
  H        1.899      70.653      79.472
  H        0.993      71.978      80.186
  P       -0.668      74.407      79.378
  C       -3.205      74.438      78.836
  O       -1.895      74.738      78.401
  O       -0.564      75.693      80.325
  O       -0.774      73.140      80.161
  H       -1.011      75.521      81.175
  H       -3.353      74.724      79.881
  H       -3.396      73.365      78.718
  H       -3.917      74.992      78.218
  H       -3.784      68.814      78.095
  H       -3.344      70.184      79.086
  H       -3.184      68.563      79.717

 3  4  5  6  7  8  9  10  11  12  23  26  30  31  33  0
 6-311+G(2d,p)
 ****
 35  36  37  38 0
 6-311+G(2d,p)
 ****
 1  2  13  14  15  16  17  18  19  20  21  22  24  25  27  28  29 0
 3-21G
 ****
 32  34  39  40  41  42  43  44  45  46  47  48  49 0
 3-21G
 ****


