%nproc=1
%NoSave
%Mem=1900MB
#P OB98/GEN NMR

erre ene a

0 1
  C       29.227     183.215    -239.042
  O       28.699     184.455    -238.618
  H       29.698     183.351    -240.021
  H       28.437     182.465    -239.135
  H       29.985     182.868    -238.335
  P       27.736     184.468    -237.335
  C       28.353     186.875    -236.634
  O       27.331     186.006    -237.117
  C       27.766     188.208    -236.162
  O       26.826     187.985    -235.092
  C       28.798     189.165    -235.588
  O       29.694     189.689    -236.550
  C       27.945     190.111    -234.760
  O       27.400     191.191    -235.514
  C       26.803     189.179    -234.286
  N       26.899     188.879    -232.861
  C       25.818     189.271    -232.087
  O       24.830     189.856    -232.532
  N       25.915     189.005    -230.746
  C       26.990     188.446    -230.120
  O       27.035     188.268    -228.906
  C       28.117     188.076    -230.988
  C       28.024     188.306    -232.301
  O       28.280     183.804    -236.106
  O       26.381     183.809    -237.871
  H       26.858     191.725    -234.901
  H       25.803     183.518    -237.122
  H       25.134     189.270    -230.167
  H       28.988     187.633    -230.525
  H       28.846     188.044    -232.966
  H       25.830     189.657    -234.462
  H       28.516     190.553    -233.939
  H       29.418     188.606    -234.876
  H       27.223     188.662    -237.000
  H       29.047     187.061    -237.460
  H       28.897     186.384    -235.818
  P       31.204     190.089    -236.212
  C       31.829     190.723    -238.658
  O       31.694     191.160    -237.312
  O       32.124     188.976    -235.836
  O       31.002     191.013    -234.903
  H       31.774     190.870    -234.325
  H       32.159     191.539    -239.266
  H       30.884     190.372    -239.015
  H       32.546     189.930    -238.705

 6  7  8  9  10  11  12  13  14  15  16  26  31  32  33  34  35 0
 6-311+G(2d,p)
 ****
 36  37 0
 6-311+G(2d,p)
 ****
 1  2  3  4  5  17  18  19  20  21  22  23  24  25 0
 3-21G
 ****
 27  28  29  30  38  39  40  41  42  43  44  45 0
 3-21G
 ****


