%nproc=1
%NoSave
%Mem=1900MB
#P OB98/GEN NMR

erre ene a

0 1
  C      565.236    -326.324     494.373
  O      565.933    -327.565     494.395
  P      566.217    -328.213     495.847
  C      563.798    -329.094     496.298
  O      564.834    -328.171     496.656
  C      563.630    -330.182     497.339
  O      563.321    -329.611     498.637
  C      562.531    -331.179     497.057
  O      562.929    -332.158     496.122
  C      562.332    -331.805     498.430
  O      563.303    -332.841     498.633
  C      562.576    -330.618     499.370
  N      559.081    -330.718     503.046
  C      560.204    -331.516     502.859
  N      560.430    -332.463     503.810
  N      561.009    -331.402     501.853
  C      560.664    -330.406     500.991
  C      559.579    -329.556     501.070
  C      558.674    -329.712     502.168
  O      557.644    -329.060     502.378
  N      559.565    -328.661     500.014
  C      560.651    -328.963     499.343
  N      561.349    -330.018     499.874
  O      567.096    -327.077     496.584
  O      566.900    -329.529     495.804
  H      563.163    -333.490     497.913
  H      567.664    -327.494     497.237
  H      558.473    -330.861     503.849
  H      560.981    -328.434     498.452
  H      563.201    -330.909     500.232
  H      561.337    -332.281     498.537
  H      559.903    -332.569     504.663
  H      561.602    -330.667     496.745
  H      561.266    -333.014     503.725
  H      564.622    -330.694     497.432
  H      564.041    -329.545     495.327
  H      562.864    -328.521     496.169
  P      561.791    -333.118     495.514
  C      560.392    -331.302     494.247
  O      560.484    -332.181     495.348
  O      561.430    -334.071     496.741
  O      562.195    -333.874     494.288
  H      561.112    -334.946     496.429
  H      560.755    -331.784     493.331
  H      561.022    -330.400     494.439
  H      559.370    -330.984     494.108
  H      565.111    -326.003     493.360
  H      565.797    -325.590     494.913
  H      564.276    -326.446     494.829

 3  4  5  6  7  8  9  10  11  12  23  26  30  31  33  0
 6-311+G(2d,p)
 ****
 35  36  37  38 0
 6-311+G(2d,p)
 ****
 1  2  13  14  15  16  17  18  19  20  21  22  24  25  27  28  29 0
 3-21G
 ****
 32  34  39  40  41  42  43  44  45  46  47  48  49 0
 3-21G
 ****


