%nproc=1
%NoSave
%Mem=1900MB
#P OB98/GEN NMR

erre ene a

0 1
  C     -896.940    -596.264    -649.685
  O     -895.800    -596.306    -650.522
  H     -896.610    -596.276    -648.644
  H     -897.570    -597.142    -649.865
  H     -897.520    -595.352    -649.858
  P     -895.990    -596.099    -652.099
  C     -894.470    -594.033    -652.363
  O     -895.800    -594.526    -652.381
  C     -894.350    -592.807    -653.271
  O     -894.630    -593.194    -654.641
  C     -895.340    -591.691    -652.951
  O     -894.930    -590.970    -651.813
  C     -895.310    -590.908    -654.257
  O     -894.160    -590.055    -654.307
  C     -895.200    -592.045    -655.306
  N     -896.500    -592.385    -655.906
  C     -896.760    -591.828    -657.157
  O     -895.990    -591.050    -657.715
  N     -897.960    -592.183    -657.736
  C     -898.910    -592.943    -657.150
  O     -900.000    -593.186    -657.689
  C     -898.590    -593.483    -655.822
  C     -897.420    -593.192    -655.276
  O     -897.220    -596.702    -652.691
  O     -894.660    -596.736    -652.719
  H     -894.220    -589.461    -653.534
  H     -894.860    -597.631    -653.061
  H     -898.160    -591.767    -658.626
  H     -899.350    -594.100    -655.330
  H     -897.170    -593.566    -654.289
  H     -894.520    -591.763    -656.098
  H     -896.180    -590.259    -654.378
  H     -896.350    -592.109    -652.818
  H     -893.320    -592.449    -653.228
  H     -893.790    -594.813    -652.709
  H     -894.210    -593.763    -651.332
  P     -895.870    -589.837    -651.180
  C     -896.810    -591.180    -649.207
  O     -897.100    -590.572    -650.458
  O     -896.250    -588.742    -652.114
  O     -895.010    -589.270    -649.945
  H     -894.650    -588.390    -650.166
  H     -897.696    -591.637    -648.819
  H     -896.462    -590.436    -648.521
  H     -896.053    -591.925    -649.339

 6  7  8  9  10  11  12  13  14  15  16  26  31  32  33  34  35 0
 6-311+G(2d,p)
 ****
 36  37 0
 6-311+G(2d,p)
 ****
 1  2  3  4  5  17  18  19  20  21  22  23  24  25 0
 3-21G
 ****
 27  28  29  30  38  39  40  41  42  43  44  45 0
 3-21G
 ****


