%nproc=1
%NoSave
%Mem=1900MB
#P OB98/GEN NMR

erre ene a

0 1
  C     -196.169    -910.212     334.737
  O     -196.566    -908.946     334.221
  P     -195.916    -908.481     332.824
  C     -193.495    -907.669     332.313
  O     -194.593    -907.661     333.208
  C     -192.367    -906.786     332.814
  O     -191.782    -907.352     333.996
  C     -191.228    -906.584     331.814
  O     -191.604    -905.664     330.816
  C     -190.115    -906.104     332.740
  O     -190.182    -904.666     332.926
  C     -190.415    -906.838     334.060
  N     -189.465    -907.910     334.336
  C     -188.270    -907.506     334.962
  O     -188.078    -906.306     335.195
  N     -187.320    -908.457     335.231
  C     -187.542    -909.695     334.914
  N     -186.577    -910.599     335.220
  C     -188.776    -910.171     334.250
  C     -189.690    -909.217     333.984
  O     -196.921    -907.348     332.328
  O     -195.729    -909.579     331.828
  H     -190.302    -904.300     332.031
  H     -196.896    -907.280     331.344
  H     -188.910    -911.203     334.006
  H     -190.617    -909.462     333.500
  H     -190.406    -906.141     334.910
  H     -189.132    -906.318     332.326
  H     -190.951    -907.541     331.366
  H     -192.813    -905.802     333.099
  H     -185.736    -910.257     335.664
  H     -193.823    -907.317     331.327
  H     -186.653    -911.598     335.034
  H     -193.146    -908.715     332.198
  P     -190.725    -905.615     329.481
  C     -188.219    -905.161     329.218
  O     -189.403    -904.798     329.893
  O     -191.517    -904.546     328.593
  O     -190.512    -906.902     328.763
  H     -191.124    -904.493     327.699
  H     -187.442    -904.443     329.468
  H     -188.365    -905.153     328.134
  H     -187.889    -906.149     329.548
  H     -196.673    -910.394     335.663
  H     -195.112    -910.215     334.900
  H     -196.424    -910.979     334.036

 3  4  5  6  7  8  9  10  11  12  13  21  23  27  28  29  30  32 0
 6-311+G(2d,p)
 ****
 34  35 0
 6-311+G(2d,p)
 ****
 1  2  14  15  16  17  18  19  20  22  24  25  26 0
 3-21G
 ****
 31  33  36  37  38  39  40  41  42  43  44  45  46 0
 3-21G
 ****


