%nproc=1
%NoSave
%Mem=1900MB
#P OB98/GEN NMR

erre ene a

0 1
  C      185.321    -198.316    -300.121
  O      186.318    -198.049    -299.130
  P      187.187    -199.293    -298.604
  C      186.033    -199.657    -296.288
  O      187.166    -199.196    -297.002
  C      186.234    -199.484    -294.776
  O      187.280    -200.388    -294.309
  C      186.622    -198.062    -294.348
  O      185.964    -197.809    -293.097
  C      188.123    -198.164    -294.145
  O      188.615    -197.140    -293.291
  C      188.234    -199.586    -293.584
  N      189.585    -200.132    -293.693
  C      190.091    -200.785    -292.575
  O      189.489    -200.847    -291.505
  N      191.342    -201.328    -292.716
  C      192.141    -201.218    -293.813
  O      193.257    -201.724    -293.884
  C      191.599    -200.417    -294.921
  C      190.366    -199.920    -294.810
  O      188.664    -198.840    -299.011
  O      186.742    -200.600    -299.177
  H      188.820    -197.884    -298.916
  H      188.448    -196.268    -293.709
  H      191.713    -201.834    -291.928
  H      192.230    -200.255    -295.787
  H      189.945    -199.308    -295.597
  H      187.938    -199.604    -292.527
  H      188.635    -198.089    -295.111
  H      186.331    -197.303    -295.079
  H      185.303    -199.777    -294.276
  H      185.866    -200.719    -296.499
  H      185.144    -199.120    -296.634
  P      184.359    -197.690    -293.092
  C      184.048    -195.107    -292.809
  O      183.985    -196.388    -292.234
  O      183.994    -198.896    -292.099
  O      183.709    -197.826    -294.429
  H      184.532    -198.901    -291.287
  H      183.538    -194.400    -292.148
  H      183.557    -195.085    -293.784
  H      185.093    -194.796    -292.914
  H      184.821    -197.406    -300.379
  H      184.610    -199.015    -299.733
  H      185.786    -198.727    -300.993

 3  4  5  6  7  8  9  10  11  12  13  24  28  29  30  31  32 0
 6-311+G(2d,p)
 ****
 33  34 0
 6-311+G(2d,p)
 ****
 1  2  14  15  16  17  18  19  20  21  22  23  25  26  27 0
 3-21G
 ****
 35  36  37  38  39  40  41  42  43  44  45 0
 3-21G
 ****


