%nproc=1
%NoSave
%Mem=1900MB
#P OB98/GEN NMR

erre ene a

0 1
  C     -955.417     400.321    -965.153
  O     -954.151     400.001    -964.612
  P     -953.934     399.942    -963.026
  C     -953.473     397.415    -962.890
  O     -952.921     398.713    -962.740
  C     -952.344     396.375    -962.846
  O     -951.453     396.521    -963.992
  C     -951.424     396.501    -961.642
  O     -951.981     396.243    -960.372
  C     -950.249     395.642    -962.075
  O     -950.510     394.262    -961.852
  C     -950.188     395.956    -963.594
  N     -949.069     396.843    -963.902
  C     -947.803     396.341    -963.634
  O     -947.583     395.252    -963.138
  N     -946.745     397.198    -963.909
  C     -946.876     398.477    -964.373
  O     -945.889     399.197    -964.564
  C     -948.232     398.943    -964.649
  C     -949.258     398.131    -964.415
  O     -955.197     399.901    -962.222
  O     -953.009     401.223    -962.735
  H     -949.697     393.774    -962.065
  H     -952.153     401.217    -963.200
  H     -945.829     396.873    -963.692
  H     -948.348     399.941    -965.047
  H     -950.274     398.445    -964.604
  H     -950.060     395.026    -964.158
  H     -949.339     395.891    -961.504
  H     -951.072     397.539    -961.604
  H     -952.802     395.375    -962.918
  H     -953.988     397.350    -963.848
  H     -954.206     397.244    -962.104
  P     -951.288     396.682    -958.991
  C     -952.701     398.818    -958.588
  O     -952.347     397.515    -958.132
  O     -949.891     397.212    -959.076
  O     -951.275     395.273    -958.190
  H     -950.465     395.250    -957.615
  H     -953.383     399.269    -957.852
  H     -953.191     398.769    -959.554
  H     -951.818     399.462    -958.646
  H     -955.361     400.310    -966.221
  H     -955.711     401.295    -964.821
  H     -956.137     399.600    -964.826

 3  4  5  6  7  8  9  10  11  12  13  23  28  29  30  31  32 0
 6-311+G(2d,p)
 ****
 33  34 0
 6-311+G(2d,p)
 ****
 1  2  14  15  16  17  18  19  20  21  22  24  25  26  27 0
 3-21G
 ****
 35  36  37  38  39  40  41  42  43  44  45 0
 3-21G
 ****


