%nproc=1
%NoSave
%Mem=1900MB
#P OB98/GEN NMR

erre ene a

0 1
  C      237.093    -889.180     867.929
  O      236.647    -890.450     867.509
  H      236.258    -888.470     867.870
  H      237.901    -888.820     867.281
  H      237.441    -889.220     868.965
  P      237.712    -891.640     867.396
  C      236.279    -893.760     867.742
  O      236.922    -892.910     866.812
  C      235.429    -894.820     867.022
  O      234.312    -894.160     866.354
  C      236.202    -895.590     865.935
  O      235.626    -896.900     865.851
  C      235.879    -894.780     864.692
  O      236.211    -895.480     863.515
  C      234.398    -894.470     864.945
  N      233.912    -893.390     864.106
  C      233.556    -893.730     862.794
  O      233.677    -894.890     862.402
  N      233.096    -892.740     861.962
  C      233.059    -891.510     862.364
  N      232.615    -890.580     861.482
  C      233.485    -891.100     863.727
  C      233.889    -892.080     864.536
  O      238.515    -891.910     868.633
  O      238.656    -891.200     866.172
  H      236.070    -894.910     862.719
  H      239.507    -890.880     866.513
  H      233.447    -890.060     864.014
  H      234.216    -891.890     865.549
  H      233.780    -895.360     864.759
  H      236.464    -893.850     864.674
  H      237.277    -895.670     866.140
  H      234.999    -895.500     867.763
  H      232.348    -890.910     860.556
  H      235.625    -893.130     868.364
  H      232.572    -889.590     861.686
  H      237.005    -894.260     868.386
  P      236.481    -898.220     865.510
  C      238.327    -897.960     867.301
  O      237.221    -898.730     866.829
  O      237.385    -898.070     864.322
  O      235.387    -899.370     865.224
  H      235.738    -900.000     864.574
  H      238.725    -898.413     868.185
  H      238.000    -896.966     867.525
  H      239.085    -897.924     866.546

 6  7  8  9  10  11  12  13  14  15  16  26  30  31  32  33  35 0
 6-311+G(2d,p)
 ****
 37  38 0
 6-311+G(2d,p)
 ****
 1  2  3  4  5  17  18  19  20  21  22  23  24  25 0
 3-21G
 ****
 27  28  29  34  36  39  40  41  42  43  44  45  46 0
 3-21G
 ****


