%nproc=1
%NoSave
%Mem=1900MB
#P OB98/GEN NMR

erre ene a

0 1
  C     -162.977     122.607    -335.337
  O     -163.473     121.436    -334.716
  H     -162.677     122.363    -336.361
  H     -162.103     122.992    -334.804
  H     -163.754     123.375    -335.372
  P     -163.833     121.499    -333.156
  C     -161.496     120.491    -332.689
  O     -162.899     120.406    -332.454
  C     -160.731     120.121    -331.423
  O     -161.001     121.076    -330.378
  C     -161.127     118.764    -330.857
  O     -160.560     117.716    -331.617
  C     -160.623     118.889    -329.434
  O     -159.211     118.655    -329.357
  C     -160.956     120.367    -329.118
  N     -162.208     120.518    -328.385
  C     -162.154     120.247    -327.014
  O     -161.095     119.909    -326.486
  N     -163.311     120.346    -326.283
  C     -164.415     120.700    -326.860
  N     -165.525     120.778    -326.077
  C     -164.513     121.007    -328.299
  C     -163.384     120.893    -328.996
  O     -165.283     121.399    -332.793
  O     -163.190     122.886    -332.679
  H     -159.001     118.602    -328.404
  H     -163.833     123.612    -332.779
  H     -165.454     121.303    -328.738
  H     -163.366     121.103    -330.059
  H     -160.153     120.823    -328.525
  H     -161.112     118.177    -328.770
  H     -162.217     118.673    -330.825
  H     -159.657     120.158    -331.645
  H     -165.414     120.548    -325.096
  H     -161.279     121.525    -332.973
  H     -166.417     121.126    -326.397
  H     -161.203     119.836    -333.515
  P     -161.487     116.570    -332.247
  C     -162.011     115.479    -329.969
  O     -161.373     115.327    -331.234
  O     -161.226     116.254    -333.681
  O     -162.970     117.114    -331.976
  H     -163.197     117.857    -332.587
  H     -161.866     114.592    -329.388
  H     -163.058     115.643    -330.115
  H     -161.588     116.316    -329.454

 6  7  8  9  10  11  12  13  14  15  16  26  30  31  32  33  35 0
 6-311+G(2d,p)
 ****
 37  38 0
 6-311+G(2d,p)
 ****
 1  2  3  4  5  17  18  19  20  21  22  23  24  25 0
 3-21G
 ****
 27  28  29  34  36  39  40  41  42  43  44  45  46 0
 3-21G
 ****


