%nproc=1
%NoSave
%Mem=1900MB
#P OB98/GEN NMR

erre ene a

0 1
  C       61.511    -586.707     156.188
  O       61.475    -585.413     156.752
  H       60.502    -586.979     155.870
  H       61.851    -587.429     156.934
  H       62.173    -586.732     155.316
  P       62.891    -584.737     157.098
  C       64.605    -584.933     159.038
  O       63.379    -585.388     158.481
  C       64.399    -584.494     160.484
  O       64.172    -585.650     161.330
  C       65.581    -583.750     161.087
  O       65.574    -582.373     160.732
  C       65.302    -583.936     162.571
  O       64.255    -583.031     162.985
  C       64.799    -585.381     162.617
  N       68.114    -587.219     165.986
  C       67.205    -586.185     166.109
  N       67.178    -585.542     167.293
  N       66.393    -585.812     165.153
  C       66.538    -586.537     164.018
  C       67.399    -587.585     163.776
  C       68.284    -587.992     164.843
  O       69.092    -588.915     164.795
  N       67.243    -588.078     162.506
  C       66.308    -587.319     161.973
  N       65.849    -586.363     162.845
  O       62.495    -583.239     157.515
  O       63.889    -584.746     155.991
  H       63.960    -583.328     163.866
  H       63.193    -582.633     157.205
  H       68.724    -587.458     166.747
  H       65.926    -587.423     160.966
  H       64.042    -585.537     163.389
  H       66.172    -583.724     163.193
  H       67.810    -585.749     168.055
  H       66.534    -584.230     160.832
  H       66.497    -584.803     167.420
  H       63.490    -583.880     160.523
  H       64.973    -584.085     158.450
  H       65.338    -585.744     158.989
  P       66.897    -581.513     161.055
  C       67.779    -580.287     163.167
  O       66.683    -580.935     162.534
  O       66.722    -580.221     160.124
  O       68.185    -582.221     160.807
  H       67.596    -579.818     159.951
  H       67.484    -579.958     164.142
  H       68.081    -579.444     162.582
  H       68.597    -580.972     163.254

 6  7  8  9  10  11  12  13  14  15  26  29  33  34 0
 6-311+G(2d,p)
 ****
 36  38  39  40  41 0
 6-311+G(2d,p)
 ****
 1  2  3  4  5  16  17  18  19  20  21  22  23  24  25 0
 3-21G
 ****
 27  28  30  31  32  35  37  42  43  44  45  46  47 0
 3-21G
 ****
 48  49 0
 3-21G
 ****


