%nproc=1
%NoSave
%Mem=1900MB
#P OB98/GEN NMR

erre ene a

0 1
  C       97.032    -145.969     -23.386
  O       96.205    -146.735     -24.231
  H       96.642    -146.036     -22.366
  H       97.021    -144.918     -23.687
  H       98.055    -146.352     -23.395
  P       96.520    -146.781     -25.806
  C       98.770    -147.963     -26.167
  O       97.365    -148.134     -26.029
  C       99.441    -149.264     -26.610
  O      100.808    -148.989     -27.024
  C       99.499    -150.335     -25.510
  O       99.077    -151.594     -26.038
  C      100.975    -150.400     -25.153
  O      101.356    -151.651     -24.584
  C      101.614    -150.060     -26.505
  N      103.016    -149.687     -26.368
  C      103.941    -150.734     -26.413
  O      103.555    -151.895     -26.563
  N      105.270    -150.453     -26.229
  C      105.640    -149.236     -25.975
  N      106.968    -149.030     -25.774
  C      104.694    -148.104     -25.894
  C      103.410    -148.397     -26.102
  O       97.150    -145.546     -26.352
  O       95.117    -147.128     -26.494
  H      101.234    -151.600     -23.610
  H       95.140    -146.832     -27.434
  H      105.053    -147.108     -25.675
  H      102.643    -147.631     -26.061
  H      101.543    -150.908     -27.198
  H      101.208    -149.614     -24.422
  H       98.888    -150.092     -24.640
  H       98.920    -149.638     -27.500
  H      107.580    -149.835     -25.832
  H       99.178    -147.629     -25.207
  H      107.370    -148.133     -25.547
  H       98.951    -147.194     -26.924
  P       97.826    -152.287     -25.308
  C       95.655    -151.959     -26.695
  O       96.796    -152.768     -26.442
  O       97.083    -151.055     -24.605
  O       98.218    -153.331     -24.316
  H       97.189    -151.113     -23.636
  H       95.067    -152.404     -27.470
  H       95.970    -150.984     -27.002
  H       95.069    -151.880     -25.803

 6  7  8  9  10  11  12  13  14  15  16  26  30  31  32  33  35 0
 6-311+G(2d,p)
 ****
 37  38 0
 6-311+G(2d,p)
 ****
 1  2  3  4  5  17  18  19  20  21  22  23  24  25 0
 3-21G
 ****
 27  28  29  34  36  39  40  41  42  43  44  45  46 0
 3-21G
 ****


