%nproc=1
%NoSave
%Mem=1900MB
#P OB98/GEN NMR

erre ene a

0 1
  C     -288.374    -237.603    -157.921
  O     -286.975    -237.606    -158.084
  P     -286.324    -237.721    -159.545
  C     -285.868    -235.204    -159.830
  O     -286.620    -236.327    -160.282
  C     -285.048    -234.624    -160.981
  O     -285.908    -234.200    -162.069
  C     -284.263    -233.376    -160.614
  O     -283.215    -233.515    -159.680
  C     -283.901    -232.837    -161.989
  O     -282.767    -233.513    -162.530
  C     -285.176    -233.181    -162.801
  N     -285.996    -231.999    -163.055
  C     -286.037    -231.558    -164.372
  O     -285.431    -232.103    -165.293
  N     -286.782    -230.432    -164.601
  C     -287.436    -229.697    -163.652
  O     -288.049    -228.668    -163.924
  C     -287.342    -230.204    -162.278
  C     -286.640    -231.314    -162.039
  O     -286.721    -238.933    -160.322
  O     -284.751    -237.624    -159.256
  H     -283.008    -234.452    -162.636
  H     -284.468    -236.799    -158.822
  H     -286.814    -230.085    -165.547
  H     -287.862    -229.650    -161.505
  H     -286.558    -231.707    -161.034
  H     -284.902    -233.622    -163.768
  H     -283.653    -231.769    -161.958
  H     -284.959    -232.653    -160.163
  H     -284.398    -235.411    -161.370
  H     -285.190    -235.529    -159.036
  H     -286.548    -234.457    -159.407
  P     -283.325    -233.047    -158.152
  C     -282.526    -235.208    -156.963
  O     -283.604    -234.339    -157.248
  O     -284.142    -231.828    -157.881
  O     -281.788    -232.728    -157.804
  H     -281.753    -232.011    -157.143
  H     -282.903    -236.053    -156.378
  H     -281.761    -234.688    -156.376
  H     -282.091    -235.592    -157.889
  H     -288.612    -237.519    -156.881
  H     -288.780    -238.514    -158.308
  H     -288.793    -236.773    -158.450

 3  4  5  6  7  8  9  10  11  12  13  23  28  29  30  31  32 0
 6-311+G(2d,p)
 ****
 33  34 0
 6-311+G(2d,p)
 ****
 1  2  14  15  16  17  18  19  20  21  22  24  25  26  27 0
 3-21G
 ****
 35  36  37  38  39  40  41  42  43  44  45 0
 3-21G
 ****


