%nproc=1
%NoSave
%Mem=1900MB
#P OB98/GEN NMR

erre ene a

0 1
  C      146.733      23.135    -235.184
  O      148.073      22.741    -235.393
  H      146.699      24.108    -234.690
  H      146.234      23.215    -236.153
  H      146.210      22.391    -234.579
  P      148.998      22.602    -234.090
  C      148.459      20.226    -233.205
  O      149.362      21.043    -233.937
  C      149.192      19.547    -232.050
  O      148.209      18.918    -231.191
  C      150.207      18.473    -232.478
  O      151.510      18.795    -231.980
  C      149.729      17.203    -231.789
  O      150.794      16.414    -231.264
  C      148.816      17.723    -230.685
  N      147.476      14.267    -227.190
  C      148.288      15.343    -227.116
  N      148.521      16.285    -228.052
  C      147.787      16.052    -229.153
  C      146.897      15.012    -229.366
  C      146.765      14.077    -228.327
  N      145.979      12.950    -228.422
  N      146.336      15.099    -230.627
  C      146.909      16.148    -231.180
  N      147.807      16.744    -230.334
  O      147.976      22.868    -232.885
  O      150.164      23.531    -234.039
  H      150.384      15.731    -230.698
  H      148.365      23.509    -232.260
  H      148.833      15.459    -226.183
  H      146.749      16.491    -232.194
  H      149.373      17.983    -229.777
  H      149.172      16.595    -232.512
  H      150.248      18.339    -233.565
  H      149.690      20.323    -231.456
  H      148.046      19.455    -233.864
  H      146.034      12.276    -227.677
  H      145.534      12.746    -229.306
  H      147.637      20.846    -232.834
  P      152.749      18.508    -232.966
  C      153.696      20.677    -234.051
  O      153.697      19.803    -232.930
  O      152.078      18.584    -234.417
  O      153.423      17.200    -232.726
  H      152.583      18.037    -235.048
  H      154.374      21.485    -233.874
  H      152.710      21.065    -234.200
  H      154.003      20.139    -234.923

 6  7  8  9  10  11  12  13  14  15  25  28  32  33  34  35 0
 6-311+G(2d,p)
 ****
 36  39  40 0
 6-311+G(2d,p)
 ****
 1  2  3  4  5  16  17  18  19  20  21  22  23  24 0
 3-21G
 ****
 26  27  29  30  31  37  38  41  42  43  44  45  46  47  48 0
 3-21G
 ****


