%nproc=1
%NoSave
%Mem=1900MB
#P OB98/GEN NMR

erre ene a

0 1
  C     -227.034     304.377     -63.632
  O     -227.758     303.969     -64.775
  H     -227.659     305.053     -63.040
  H     -226.126     304.914     -63.934
  H     -226.768     303.513     -63.018
  P     -227.026     302.936     -65.761
  C     -225.702     304.804     -67.004
  O     -225.643     303.629     -66.197
  C     -224.637     304.729     -68.096
  O     -223.333     304.922     -67.511
  C     -224.571     303.385     -68.818
  O     -225.586     303.254     -69.796
  C     -223.163     303.431     -69.401
  O     -223.129     304.161     -70.635
  C     -222.380     304.198     -68.322
  N     -218.746     300.621     -68.395
  C     -219.290     301.378     -69.376
  N     -220.250     302.324     -69.268
  C     -220.633     302.467     -67.985
  C     -220.174     301.761     -66.884
  C     -219.181     300.800     -67.119
  N     -218.655     300.007     -66.134
  N     -220.845     302.159     -65.746
  C     -221.687     303.086     -66.146
  N     -221.590     303.313     -67.493
  O     -227.925     303.013     -67.089
  O     -226.906     301.539     -65.246
  H     -222.218     304.087     -70.976
  H     -228.587     302.295     -67.075
  H     -218.911     301.195     -70.379
  H     -222.387     303.624     -65.509
  H     -221.696     304.937     -68.754
  H     -222.780     302.430     -69.604
  H     -224.624     302.561     -68.090
  H     -224.814     305.546     -68.813
  H     -225.519     305.682     -66.380
  H     -226.705     304.881     -67.445
  H     -217.956     299.318     -66.378
  H     -219.046     300.051     -65.199
  P     -226.218     301.809     -70.058
  C     -224.894     301.157     -72.204
  O     -225.108     300.930     -70.823
  O     -227.326     302.085     -71.187
  O     -226.802     301.154     -68.852
  H     -228.214     302.135     -70.778
  H     -224.130     300.497     -72.560
  H     -224.588     302.171     -72.356
  H     -225.802     300.974     -72.740

 6  7  8  9  10  11  12  13  14  15  25  28  32  33  34  35 0
 6-311+G(2d,p)
 ****
 36  37  40 0
 6-311+G(2d,p)
 ****
 1  2  3  4  5  16  17  18  19  20  21  22  23  24 0
 3-21G
 ****
 26  27  29  30  31  38  39 41  42  43  44  45  46  47  48 0
 3-21G
 ****


