%nproc=1
%NoSave
%Mem=1900MB
#P OB98/GEN NMR

erre ene a

0 1
  C      -37.043     373.030    -199.114
  O      -37.225     373.586    -200.400
  P      -37.953     372.813    -201.594
  C      -39.218     374.815    -202.660
  O      -38.182     373.850    -202.799
  C      -39.164     375.911    -203.739
  O      -38.047     376.784    -203.480
  C      -38.915     375.285    -205.113
  O      -39.993     374.757    -205.864
  C      -38.049     376.296    -205.857
  O      -38.809     377.127    -206.738
  C      -37.435     377.135    -204.731
  N      -32.943     377.326    -207.081
  C      -34.160     377.836    -207.494
  N      -34.217     378.282    -208.768
  N      -35.224     377.879    -206.726
  C      -35.030     377.306    -205.513
  C      -33.874     376.786    -204.987
  C      -32.698     376.781    -205.828
  O      -31.620     376.263    -205.536
  N      -34.072     376.226    -203.750
  C      -35.368     376.372    -203.536
  N      -35.998     376.992    -204.597
  O      -39.072     371.894    -201.217
  O      -36.751     371.897    -202.160
  H      -39.134     376.567    -207.469
  H      -37.140     371.055    -202.466
  H      -32.181     377.245    -207.745
  H      -35.891     376.025    -202.661
  H      -37.636     378.202    -204.889
  H      -37.302     375.785    -206.481
  H      -33.466     378.129    -209.425
  H      -38.257     374.420    -204.952
  H      -35.131     378.501    -209.151
  H      -40.056     376.546    -203.697
  H      -39.127     375.252    -201.664
  H      -40.187     374.318    -202.707
  P      -40.053     373.320    -206.561
  C      -42.219     372.466    -205.502
  O      -41.587     372.887    -206.697
  O      -39.492     372.318    -205.443
  O      -39.249     373.193    -207.815
  H      -39.167     371.497    -205.869
  H      -43.131     371.921    -205.749
  H      -42.482     373.340    -204.903
  H      -41.559     371.808    -204.922
  H      -36.533     373.734    -198.490
  H      -36.462     372.135    -199.191
  H      -37.997     372.800    -198.686

 3  4  5  6  7  8  9  10  11  12  23  26  30  31 0
 6-311+G(2d,p)
 ****
 33  35  36  37  38 0
 6-311+G(2d,p)
 ****
 1  2  13  14  15  16  17  18  19  20  21  22  24  25 0
 3-21G
 ****
 27  28  29  32  34  39  40  41  42  43  44  45  46  47  48  49 0
 3-21G
 ****


