%nproc=1
%NoSave
%Mem=1900MB
#P OB98/GEN NMR

erre ene a

0 1
  C     -156.873     313.217      14.934
  O     -156.263     311.941      14.835
  P     -155.962     311.069      16.148
  C     -153.397     311.216      15.945
  O     -154.547     311.570      16.714
  C     -152.193     310.990      16.849
  O     -151.015     310.799      16.026
  C     -151.911     312.166      17.783
  O     -151.433     311.660      19.032
  C     -150.775     312.915      17.113
  O     -149.995     313.650      18.067
  C     -150.028     311.773      16.410
  N     -145.433     312.446      14.208
  C     -145.780     311.948      15.419
  N     -147.023     311.817      15.950
  C     -147.953     312.225      15.070
  C     -147.745     312.758      13.804
  C     -146.412     312.870      13.374
  N     -146.050     313.373      12.142
  N     -148.950     313.090      13.204
  C     -149.864     312.750      14.085
  N     -149.317     312.210      15.226
  O     -156.072     309.594      15.966
  O     -157.000     311.618      17.234
  H     -149.314     314.151      17.567
  H     -157.336     310.882      17.779
  H     -144.968     311.608      16.046
  H     -150.933     312.870      13.963
  H     -149.309     311.285      17.084
  H     -151.181     313.632      16.385
  H     -152.785     312.800      17.948
  H     -152.350     310.069      17.421
  H     -153.186     312.033      15.250
  H     -145.082     313.296      11.878
  H     -146.786     313.515      11.453
  H     -153.612     310.312      15.362
  P     -151.405     312.705      20.257
  C     -148.835     312.350      20.536
  O     -149.895     313.251      20.295
  O     -151.945     312.121      21.514
  O     -152.272     313.912      19.650
  H     -152.254     313.908      18.671
  H     -147.897     312.911      20.556
  H     -148.781     311.607      19.733
  H     -148.973     311.852      21.498
  H     -156.988     313.634      13.955
  H     -156.258     313.861      15.527
  H     -157.834     313.118      15.395

 3  4  5  6  7  8  9  10  11  12  22  25  29  30  31  32 0
 6-311+G(2d,p)
 ****
 33  36  37 0
 6-311+G(2d,p)
 ****
 1  2  13  14  15  16  17  18  19  20  21  23  24  26 0
 3-21G
 ****
 27  28  34  35  38  39  40  41  42  43  44  45  46  47  48 0
 3-21G
 ****


