%nproc=1
%NoSave
%Mem=1900MB
#P OB98/GEN NMR

erre ene a

0 1
  C      153.826    -171.510      87.009
  O      154.543    -172.157      88.043
  H      153.071    -172.191      86.608
  H      153.323    -170.634      87.426
  H      154.500    -171.185      86.209
  P      155.597    -173.287      87.609
  C      156.950    -175.123      88.857
  O      155.989    -174.081      88.953
  C      157.384    -175.586      90.249
  O      158.352    -174.626      90.770
  C      156.235    -175.691      91.268
  O      156.469    -176.840      92.094
  C      156.405    -174.432      92.112
  O      155.860    -174.577      93.420
  C      157.918    -174.260      92.091
  N      158.520    -170.957      95.917
  C      158.424    -172.302      95.898
  N      158.318    -173.115      94.823
  C      158.387    -172.404      93.678
  C      158.497    -171.027      93.543
  C      158.542    -170.288      94.740
  N      158.572    -168.912      94.772
  N      158.480    -170.677      92.207
  C      158.341    -171.813      91.552
  N      158.279    -172.884      92.402
  O      156.914    -172.426      87.286
  O      155.189    -174.140      86.456
  H      156.294    -175.335      93.857
  H      156.891    -172.136      86.356
  H      158.418    -172.796      96.864
  H      158.249    -171.914      90.477
  H      158.432    -174.905      92.813
  H      155.899    -173.594      91.619
  H      155.247    -175.759      90.811
  H      157.907    -176.544      90.150
  H      157.824    -174.749      88.315
  H      158.499    -168.460      95.675
  H      158.477    -168.398      93.911
  H      156.523    -175.963      88.299
  P      155.889    -178.244      91.582
  C      156.627    -180.746      91.690
  O      156.800    -179.421      92.183
  O      156.258    -178.251      90.025
  O      154.418    -178.408      91.808
  H      155.576    -178.730      89.521
  H      157.306    -181.404      92.191
  H      156.824    -180.764      90.638
  H      155.622    -181.065      91.870

 6  7  8  9  10  11  12  13  14  15  25  28  32  33  34  35 0
 6-311+G(2d,p)
 ****
 36  39  40 0
 6-311+G(2d,p)
 ****
 1  2  3  4  5  16  17  18  19  20  21  22  23  24 0
 3-21G
 ****
 26  27  29  30  31  37  38  41  42  43  44  45  46  47 0
 3-21G
 ****
 48 0
 3-21G
 ****


