%nproc=1
%NoSave
%Mem=1900MB
#P OB98/GEN NMR

erre ene a

0 1
  C     -166.917     167.128     395.322
  O     -168.166     166.494     395.040
  P     -169.493     167.391     394.944
  C     -170.291     167.069     397.375
  O     -169.815     167.988     396.402
  C     -170.453     167.757     398.742
  O     -170.936     166.806     399.736
  C     -169.130     168.329     399.273
  O     -169.366     169.522     400.037
  C     -168.657     167.253     400.230
  O     -167.716     167.763     401.176
  C     -169.989     166.793     400.823
  N     -169.799     164.174     405.226
  C     -169.946     165.496     404.970
  N     -170.012     166.117     403.771
  C     -169.922     165.229     402.769
  C     -169.782     163.849     402.873
  C     -169.710     163.321     404.175
  N     -169.528     161.983     404.435
  N     -169.714     163.265     401.625
  C     -169.767     164.276     400.782
  N     -169.927     165.478     401.422
  O     -170.653     166.758     394.252
  O     -168.985     168.688     394.147
  H     -168.213     168.298     401.816
  H     -169.665     168.947     393.494
  H     -170.017     166.136     405.845
  H     -169.685     164.195     399.705
  H     -170.351     167.489     401.588
  H     -168.171     166.441     399.666
  H     -168.386     168.547     398.496
  H     -171.206     168.548     398.657
  H     -169.597     166.230     397.458
  H     -169.377     161.713     405.393
  H     -169.312     161.363     403.668
  H     -171.239     166.638     397.031
  P     -169.082     170.916     399.275
  C     -166.594     171.170     400.036
  O     -167.507     170.941     398.987
  O     -169.648     172.105     399.982
  O     -169.745     170.645     397.844
  H     -169.471     169.815     397.414
  H     -165.579     171.025     399.666
  H     -166.765     170.474     400.866
  H     -166.685     172.202     400.399
  H     -166.142     166.391     395.351
  H     -166.974     167.623     396.269
  H     -166.700     167.845     394.558

 3  4  5  6  7  8  9  10  11  12  22  25  29  30  31  32 0
 6-311+G(2d,p)
 ****
 33  36  37 0
 6-311+G(2d,p)
 ****
 1  2  13  14  15  16  17  18  19  20  21  23  24  26 0
 3-21G
 ****
 27  28  34  35  38  39  40  41  42  43  44  45  46  47  48 0
 3-21G
 ****


