%nproc=1
%NoSave
%Mem=1900MB
#P OB98/GEN NMR

erre ene a

0 1
  C     -491.729     132.763     587.983
  O     -492.768     131.805     587.940
  H     -491.201     132.666     588.934
  H     -492.141     133.773     587.913
  H     -491.019     132.592     587.169
  P     -493.744     131.774     586.673
  C     -493.505     129.207     586.699
  O     -494.401     130.309     586.628
  C     -494.290     127.914     586.983
  O     -494.637     127.905     588.386
  C     -495.591     127.818     586.159
  O     -495.699     126.602     585.428
  C     -496.672     128.133     587.185
  O     -497.936     127.578     586.893
  C     -496.050     127.650     588.504
  N     -496.597     128.305     589.687
  C     -497.593     127.630     590.396
  O     -498.026     126.513     590.109
  N     -498.093     128.284     591.498
  C     -497.712     129.520     591.932
  O     -498.188     130.056     592.931
  C     -496.674     130.192     591.137
  C     -496.174     129.566     590.062
  O     -493.138     132.230     585.383
  O     -494.973     132.703     587.108
  H     -498.527     127.754     587.656
  H     -494.885     133.577     586.680
  H     -498.801     127.801     592.018
  H     -496.352     131.176     591.446
  H     -495.405     130.031     589.456
  H     -496.194     126.571     588.620
  H     -496.800     129.222     587.230
  H     -495.611     128.592     585.374
  H     -493.631     127.052     586.795
  H     -492.797     129.400     587.508
  H     -492.960     129.106     585.757
  P     -496.139     126.506     583.892
  C     -493.825     126.856     582.708
  O     -494.885     125.974     583.050
  O     -496.870     127.695     583.350
  O     -497.166     125.255     583.877
  H     -497.822     125.447     583.187
  H     -493.084     126.323     582.150
  H     -493.385     127.248     583.601
  H     -494.208     127.661     582.116

 6  7  8  9  10  11  12  13  14  15  16  26  31  32  33  34  35 0
 6-311+G(2d,p)
 ****
 36  37 0
 6-311+G(2d,p)
 ****
 1  2  3  4  5  17  18  19  20  21  22  23  24  25 0
 3-21G
 ****
 27  28  29  30  38  39  40  41  42  43  44  45 0
 3-21G
 ****


