%nproc=1
%NoSave
%Mem=1900MB
#P OB98/GEN NMR

erre ene a

0 1
  C     -148.449    -489.468     504.325
  O     -148.579    -490.779     504.840
  H     -147.650    -488.956     504.868
  H     -149.376    -488.904     504.452
  H     -148.179    -489.508     503.267
  P     -149.861    -491.640     504.400
  C     -152.310    -491.366     505.172
  O     -151.137    -490.706     504.718
  C     -153.045    -490.541     506.231
  O     -152.175    -490.250     507.345
  C     -153.512    -489.181     505.739
  O     -154.528    -489.224     504.761
  C     -153.773    -488.448     507.049
  O     -155.048    -488.757     507.600
  C     -152.653    -489.025     507.945
  N     -151.563    -488.074     508.161
  C     -151.740    -487.178     509.219
  O     -152.746    -487.156     509.932
  N     -150.726    -486.287     509.414
  C     -149.602    -486.170     508.647
  O     -148.731    -485.330     508.865
  C     -149.490    -487.115     507.520
  C     -150.462    -488.015     507.335
  O     -149.958    -493.013     504.998
  O     -149.802    -491.634     502.801
  H     -155.049    -488.423     508.518
  H     -150.391    -492.328     502.419
  H     -150.820    -485.639     510.182
  H     -148.618    -487.041     506.885
  H     -150.402    -488.718     506.510
  H     -153.055    -489.306     508.929
  H     -153.722    -487.363     506.928
  H     -152.662    -488.674     505.265
  H     -153.882    -491.142     506.608
  H     -152.004    -492.326     505.608
  H     -152.972    -491.562     504.318
  P     -154.620    -488.212     503.530
  C     -156.395    -486.431     502.822
  O     -155.711    -487.086     503.880
  O     -154.647    -488.815     502.165
  O     -153.231    -487.398     503.678
  H     -152.929    -487.172     502.769
  H     -157.080    -485.717     503.228
  H     -156.934    -487.153     502.245
  H     -155.687    -485.930     502.196

 6  7  8  9  10  11  12  13  14  15  16  26  31  32  33  34  35 0
 6-311+G(2d,p)
 ****
 36  37 0
 6-311+G(2d,p)
 ****
 1  2  3  4  5  17  18  19  20  21  22  23  24  25 0
 3-21G
 ****
 27  28  29  30  38  39  40  41  42  43  44  45 0
 3-21G
 ****


