%nproc=1
%NoSave
%Mem=1900MB
#P OB98/GEN NMR

erre ene a

0 1
  C     -183.016     -27.230     322.775
  O     -182.675     -27.182     324.148
  H     -182.294     -26.639     322.211
  H     -184.015     -26.811     322.621
  H     -182.993     -28.264     322.412
  P     -183.563     -28.065     325.147
  C     -183.312     -26.238     326.977
  O     -183.160     -27.613     326.636
  C     -182.424     -25.880     328.169
  O     -182.892     -26.596     329.343
  C     -180.935     -26.240     327.980
  O     -180.154     -25.233     328.636
  C     -180.800     -27.528     328.765
  O     -179.453     -27.798     329.153
  C     -181.746     -27.244     329.929
  N     -180.172     -30.568     333.369
  C     -179.578     -29.406     332.901
  N     -178.379     -29.082     333.432
  N     -180.120     -28.633     331.999
  C     -181.332     -29.062     331.588
  C     -182.027     -30.187     331.959
  C     -181.403     -31.052     332.941
  O     -181.871     -32.101     333.382
  N     -183.220     -30.290     331.277
  C     -183.238     -29.221     330.495
  N     -182.123     -28.451     330.646
  O     -182.911     -29.523     325.007
  O     -185.031     -28.082     324.863
  H     -179.087     -26.981     329.576
  H     -183.390     -30.042     324.333
  H     -179.700     -31.125     334.055
  H     -184.040     -28.980     329.806
  H     -181.310     -26.564     330.667
  H     -181.156     -28.379     328.167
  H     -177.921     -29.604     334.172
  H     -180.625     -26.328     326.937
  H     -177.949     -28.210     333.140
  H     -182.541     -24.806     328.376
  H     -184.359     -26.054     327.242
  H     -183.048     -25.623     326.109
  P     -179.331     -24.199     327.719
  C     -177.432     -24.023     329.507
  O     -178.370     -23.333     328.687
  O     -180.451     -23.130     327.292
  O     -178.671     -24.817     326.536
  H     -180.214     -22.737     326.436
  H     -176.875     -23.315     330.085
  H     -176.763     -24.584     328.889
  H     -177.953     -24.688     330.163

 6  7  8  9  10  11  12  13  14  15  26  29  33  34 0
 6-311+G(2d,p)
 ****
 36  38  39  40  41 0
 6-311+G(2d,p)
 ****
 1  2  3  4  5  16  17  18  19  20  21  22  23  24  25 0
 3-21G
 ****
 27  28  30  31  32  35  37  42  43  44  45  46  47 0
 3-21G
 ****
 48  49 0
 3-21G
 ****


