%nproc=1
%NoSave
%Mem=1900MB
#P OB98/GEN NMR

erre ene a

0 1
  C      648.231    -180.496     -27.587
  O      647.333    -181.549     -27.872
  H      647.684    -179.700     -27.075
  H      648.645    -180.090     -28.515
  H      649.040    -180.839     -26.937
  P      647.912    -182.911     -28.487
  C      648.956    -183.813     -26.308
  O      647.948    -183.983     -27.297
  C      648.686    -184.747     -25.131
  O      647.552    -184.276     -24.369
  C      648.346    -186.174     -25.542
  O      649.504    -186.886     -25.932
  C      647.681    -186.685     -24.273
  O      648.663    -187.079     -23.301
  C      646.904    -185.438     -23.801
  N      645.487    -185.480     -24.159
  C      644.677    -186.304     -23.384
  O      645.101    -186.997     -22.462
  N      643.348    -186.328     -23.728
  C      642.792    -185.714     -24.812
  O      641.613    -185.841     -25.128
  C      643.700    -184.878     -25.609
  C      644.985    -184.799     -25.251
  O      649.179    -182.784     -29.262
  O      646.715    -183.445     -29.411
  H      649.173    -186.275     -23.086
  H      646.934    -183.287     -30.348
  H      642.749    -186.929     -23.185
  H      643.293    -184.364     -26.469
  H      645.670    -184.195     -25.830
  H      646.978    -185.334     -22.710
  H      647.048    -187.554     -24.459
  H      647.605    -186.167     -26.349
  H      649.566    -184.732     -24.470
  H      648.938    -182.776     -25.962
  H      649.932    -184.025     -26.757
  P      649.374    -188.157     -26.894
  C      650.303    -186.716     -28.808
  O      650.395    -187.956     -28.113
  O      647.981    -188.519     -27.290
  O      650.048    -189.340     -26.053
  H      649.389    -190.042     -25.894
  H      651.027    -186.694     -29.595
  H      650.491    -185.911     -28.128
  H      649.322    -186.611     -29.222

 6  7  8  9  10  11  12  13  14  15  16  26  31  32  33  34  35 0
 6-311+G(2d,p)
 ****
 36  37 0
 6-311+G(2d,p)
 ****
 1  2  3  4  5  17  18  19  20  21  22  23  24  25 0
 3-21G
 ****
 27  28  29  30  38  39  40  41  42  43  44  45 0
 3-21G
 ****


