%nproc=1
%NoSave
%Mem=1900MB
#P OB98/GEN NMR

erre ene a

0 1
  C      -48.088     885.245    -335.932
  O      -46.968     885.803    -336.623
  P      -45.841     886.484    -335.701
  C      -44.173     884.501    -335.827
  O      -44.994     885.311    -335.005
  C      -42.818     884.249    -335.158
  O      -42.034     885.453    -335.032
  C      -42.937     883.678    -333.756
  O      -43.199     882.287    -333.815
  C      -41.565     884.007    -333.171
  O      -40.595     883.007    -333.533
  C      -41.236     885.353    -333.830
  N      -39.553     888.019    -329.860
  C      -39.147     886.783    -330.328
  N      -38.128     886.191    -329.669
  N      -39.686     886.185    -331.367
  C      -40.687     886.900    -331.928
  C      -41.160     888.145    -331.567
  C      -40.563     888.792    -330.420
  O      -40.873     889.887    -329.973
  N      -42.152     888.571    -332.419
  C      -42.358     887.532    -333.210
  N      -41.455     886.530    -333.001
  O      -46.684     887.128    -334.501
  O      -45.027     887.516    -336.422
  H      -39.702     883.322    -333.284
  H      -46.664     888.102    -334.579
  H      -39.108     888.427    -329.047
  H      -43.121     887.480    -333.975
  H      -40.180     885.395    -334.141
  H      -41.589     884.030    -332.073
  H      -37.672     886.593    -328.866
  H      -43.721     884.207    -333.193
  H      -37.814     885.292    -330.005
  H      -42.258     883.548    -335.799
  H      -44.020     884.980    -336.792
  H      -44.694     883.557    -336.022
  P      -44.521     881.742    -333.085
  C      -44.703     880.001    -335.004
  O      -45.364     880.927    -334.167
  O      -45.378     883.075    -332.842
  O      -44.263     881.023    -331.800
  H      -45.747     883.062    -331.941
  H      -45.394     879.205    -335.274
  H      -43.835     879.553    -334.499
  H      -44.368     880.505    -335.914
  H      -48.769     884.822    -336.640
  H      -48.583     886.014    -335.376
  H      -47.750     884.482    -335.263

 3  4  5  6  7  8  9  10  11  12  23  26  30  31 0
 6-311+G(2d,p)
 ****
 33  35  36  37  38 0
 6-311+G(2d,p)
 ****
 1  2  13  14  15  16  17  18  19  20  21  22  24  25 0
 3-21G
 ****
 27  28  29  32  34  39  40  41  42  43  44  45  46  47  48  49 0
 3-21G
 ****


