%nproc=1
%NoSave
%Mem=1900MB
#P OB98/GEN NMR

erre ene a

0 1
  C      661.414     289.830    -180.693
  O      662.464     288.883    -180.845
  P      663.574     288.681    -179.699
  C      665.146     290.289    -180.953
  O      664.460     290.018    -179.744
  C      665.715     291.713    -180.941
  O      664.604     292.643    -181.003
  C      666.495     292.108    -179.679
  O      667.856     291.709    -179.689
  C      666.401     293.628    -179.766
  O      667.359     294.120    -180.718
  C      664.970     293.841    -180.271
  N      662.464     297.406    -177.588
  C      663.326     297.496    -178.633
  N      663.972     296.494    -179.264
  C      663.605     295.303    -178.778
  C      662.743     295.051    -177.737
  C      662.145     296.186    -177.118
  N      661.247     296.078    -176.072
  N      662.634     293.700    -177.484
  C      663.418     293.137    -178.400
  N      664.019     294.064    -179.202
  O      664.332     287.406    -179.797
  O      662.755     288.823    -178.327
  H      667.327     295.086    -180.687
  H      663.277     288.458    -177.597
  H      663.554     298.503    -178.987
  H      663.565     292.078    -178.497
  H      664.899     294.677    -180.974
  H      666.634     294.114    -178.795
  H      665.983     291.763    -178.767
  H      666.322     291.855    -181.840
  H      664.437     290.194    -181.788
  H      660.784     296.942    -175.796
  H      660.887     295.178    -175.835
  H      665.940     289.556    -181.097
  P      668.570     291.479    -178.262
  C      669.468     293.952    -178.203
  O      668.678     292.942    -177.599
  O      669.844     290.722    -178.319
  O      667.423     290.774    -177.401
  H      666.639     291.325    -177.203
  H      669.296     294.897    -177.687
  H      669.222     294.053    -179.260
  H      670.542     293.687    -178.086
  H      660.787     289.810    -181.560
  H      661.830     290.809    -180.577
  H      660.834     289.584    -179.828

 3  4  5  6  7  8  9  10  11  12  22  25  29  30  31  32 0
 6-311+G(2d,p)
 ****
 33  36  37 0
 6-311+G(2d,p)
 ****
 1  2  13  14  15  16  17  18  19  20  21  23  24  26 0
 3-21G
 ****
 27  28  34  35  38  39  40  41  42  43  44  45  46  47  48 0
 3-21G
 ****


