%nproc=1
%NoSave
%Mem=1900MB
#P OB98/GEN NMR

erre ene a

0 1
  C      209.491    -584.434    -610.596
  O      209.573    -585.638    -611.329
  H      209.565    -583.591    -611.286
  H      210.323    -584.380    -609.883
  H      208.544    -584.369    -610.056
  P      209.233    -587.018    -610.605
  C      207.416    -587.142    -612.440
  O      207.753    -587.434    -611.083
  C      206.039    -587.725    -612.783
  O      206.134    -589.176    -612.781
  C      204.918    -587.335    -611.789
  O      203.706    -587.262    -612.541
  C      204.927    -588.548    -610.865
  O      203.774    -588.586    -610.070
  C      205.100    -589.664    -611.900
  N      205.453    -590.948    -611.324
  C      204.445    -591.898    -611.184
  O      203.287    -591.709    -611.542
  N      204.803    -593.068    -610.588
  C      206.039    -593.401    -610.115
  O      206.314    -594.479    -609.614
  C      207.070    -592.347    -610.261
  C      206.731    -591.201    -610.848
  O      209.448    -587.048    -609.122
  O      210.166    -588.086    -611.356
  H      210.976    -588.236    -610.822
  H      203.713    -587.784    -609.506
  H      204.077    -593.771    -610.498
  H      208.052    -592.564    -609.888
  H      207.467    -590.402    -610.964
  H      204.201    -589.779    -612.503
  H      205.782    -588.512    -610.193
  H      205.121    -586.385    -611.282
  H      205.774    -587.419    -613.810
  H      208.188    -587.581    -613.083
  H      207.413    -586.057    -612.583
  P      203.237    -585.932    -613.327
  C      203.718    -587.092    -615.589
  O      203.924    -585.932    -614.794
  O      203.459    -584.676    -612.558
  O      201.681    -586.138    -613.635
  H      201.226    -585.282    -613.575
  H      204.217    -586.974    -616.528
  H      202.670    -587.228    -615.756
  H      204.112    -587.947    -615.081

 6  7  8  9  10  11  12  13  14  15  16  27  31  32  33  34  35 0
 6-311+G(2d,p)
 ****
 36  37 0
 6-311+G(2d,p)
 ****
 1  2  3  4  5  17  18  19  20  21  22  23  24  25 0
 3-21G
 ****
 26  28  29  30  38  39  40  41  42  43  44  45 0
 3-21G
 ****


