%nproc=1
%NoSave
%Mem=1900MB
#P OB98/GEN NMR

erre ene a

0 1
  C        6.398      -3.689      15.175
  O        7.620      -4.033      15.794
  H        5.725      -3.222      15.899
  H        6.597      -2.975      14.371
  H        5.925      -4.579      14.749
  P        7.542      -5.050      17.033
  C        5.863      -3.455      18.220
  O        7.101      -4.150      18.287
  C        5.300      -3.293      19.627
  O        4.028      -2.606      19.577
  C        5.028      -4.615      20.337
  O        6.193      -5.165      20.927
  C        4.033      -4.169      21.394
  O        4.725      -3.497      22.461
  C        3.170      -3.171      20.606
  N       -1.134      -5.824      21.406
  C       -0.216      -5.315      22.258
  N        0.890      -4.603      21.966
  C        1.003      -4.420      20.641
  C        0.144      -4.873      19.653
  C       -0.970      -5.614      20.080
  N       -1.891      -6.161      19.214
  N        0.605      -4.506      18.403
  C        1.711      -3.829      18.638
  N        2.011      -3.778      19.973
  O        9.075      -5.383      17.351
  O        6.709      -6.271      16.824
  H        4.057      -3.272      23.137
  H        9.139      -6.161      17.937
  H       -0.394      -5.510      23.311
  H        2.332      -3.369      17.881
  H        2.806      -2.346      21.227
  H        3.488      -5.005      21.840
  H        4.542      -5.336      19.671
  H        5.992      -2.670      20.207
  H        5.163      -4.032      17.607
  H       -2.568      -6.797      19.604
  H       -1.699      -6.136      18.224
  H        6.021      -2.475      17.762
  P        6.346      -6.765      20.912
  C        5.240      -6.866      23.261
  O        6.348      -7.234      22.447
  O        7.866      -6.974      20.461
  O        5.385      -7.473      20.016
  H        7.965      -7.795      19.943
  H        5.382      -7.247      24.251
  H        4.342      -7.275      22.847
  H        5.163      -5.799      23.297

 6  7  8  9  10  11  12  13  14  15  25  28  32  33  34  35 0
 6-311+G(2d,p)
 ****
 36  39  40 0
 6-311+G(2d,p)
 ****
 1  2  3  4  5  16  17  18  19  20  21  22  23  24 0
 3-21G
 ****
 26  27  29  30  31  37  38  41  42  43  44  45  46  47 0
 3-21G
 ****
 48 0
 3-21G
 ****


