%nproc=1
%NoSave
%Mem=1900MB
#P OB98/GEN NMR

erre ene a

0 1
  C      170.020    -447.655     292.152
  O      170.194    -448.886     292.828
  P      171.060    -450.093     292.247
  C      169.492    -451.952     293.172
  O      170.796    -451.386     293.174
  C      169.433    -453.333     293.858
  O      170.366    -454.228     293.227
  C      169.892    -453.199     295.324
  O      168.978    -452.785     296.320
  C      170.626    -454.510     295.627
  O      169.796    -455.451     296.312
  C      171.002    -455.030     294.237
  N      175.417    -457.341     295.180
  C      174.128    -457.801     295.404
  N      174.022    -458.931     296.129
  N      173.057    -457.188     294.958
  C      173.327    -456.019     294.325
  C      174.559    -455.477     294.036
  C      175.735    -456.181     294.489
  O      176.887    -455.764     294.393
  N      174.444    -454.238     293.445
  C      173.145    -454.023     293.408
  N      172.427    -455.054     293.971
  O      172.463    -449.782     291.824
  O      170.225    -450.463     290.915
  H      169.053    -455.667     295.733
  H      170.871    -450.753     290.237
  H      176.206    -457.818     295.611
  H      172.673    -453.121     293.029
  H      170.633    -456.052     294.097
  H      171.492    -454.322     296.275
  H      174.807    -459.344     296.609
  H      170.671    -452.432     295.344
  H      173.097    -459.198     296.457
  H      168.449    -453.787     293.748
  H      169.166    -452.036     292.128
  H      168.798    -451.275     293.677
  P      168.752    -451.285     296.835
  C      169.311    -452.084     299.202
  O      168.419    -451.329     298.401
  O      167.345    -450.862     296.184
  O      169.818    -450.314     296.439
  H      167.284    -449.884     296.141
  H      168.842    -452.298     300.163
  H      170.228    -451.501     299.374
  H      169.581    -453.032     298.711
  H      169.402    -447.009     292.740
  H      169.553    -447.831     291.205
  H      170.973    -447.194     291.999

 3  4  5  6  7  8  9  10  11  12  23  26  30  31 0
 6-311+G(2d,p)
 ****
 33  35  36  37  38 0
 6-311+G(2d,p)
 ****
 1  2  13  14  15  16  17  18  19  20  21  22  24  25 0
 3-21G
 ****
 27  28  29  32  34  39  40  41  42  43  44  45  46  47  48  49 0
 3-21G
 ****


