%nproc=1
%NoSave
%Mem=1900MB
#P OB98/GEN NMR

erre ene a

0 1
  C       87.574     216.959     484.458
  O       87.665     217.329     485.821
  H       88.203     217.630     483.870
  H       86.540     217.050     484.117
  H       87.923     215.933     484.320
  P       86.839     216.430     486.862
  C       84.700     217.801     487.456
  O       85.295     216.805     486.633
  C       83.172     217.678     487.410
  O       82.810     216.288     487.654
  C       82.455     218.524     488.476
  O       81.169     218.911     487.960
  C       82.265     217.516     489.595
  O       81.300     217.973     490.512
  C       81.895     216.287     488.771
  N       79.857     211.665     489.470
  C       79.579     212.649     488.587
  N       80.177     213.852     488.458
  C       81.176     213.981     489.351
  C       81.570     213.069     490.314
  C       80.856     211.860     490.360
  N       81.118     210.862     491.270
  N       82.617     213.578     491.062
  C       82.849     214.769     490.554
  N       82.003     215.054     489.518
  O       87.188     217.096     488.275
  O       87.142     214.971     486.838
  H       81.105     217.292     491.188
  H       87.951     216.641     488.678
  H       78.772     212.444     487.888
  H       83.603     215.468     490.900
  H       80.874     216.340     488.374
  H       83.197     217.361     490.147
  H       83.014     219.416     488.772
  H       82.821     217.925     486.400
  H       85.007     218.783     487.089
  H       85.044     217.673     488.484
  H       80.541     210.036     491.255
  H       81.838     211.004     491.966
  P       80.954     220.416     487.445
  C       79.215     221.251     489.203
  O       80.521     221.372     488.661
  O       79.589     220.292     486.610
  O       82.043     220.956     486.573
  H       79.683     220.756     485.757
  H       79.092     221.956     489.999
  H       79.076     220.259     489.580
  H       78.492     221.447     488.439

 6  7  8  9  10  11  12  13  14  15  25  28  32  33  34  35 0
 6-311+G(2d,p)
 ****
 36  37  40 0
 6-311+G(2d,p)
 ****
 1  2  3  4  5  16  17  18  19  20  21  22  23  24 0
 3-21G
 ****
 26  27  29  30  31  38  39 41  42  43  44  45  46  47  48 0
 3-21G
 ****


