%nproc=1
%NoSave
%Mem=1900MB
#P OB98/GEN NMR

erre ene a

0 1
  C     -270.411    -391.166     678.135
  O     -271.102    -389.949     677.857
  P     -272.400    -389.825     676.932
  C     -271.058    -389.487     674.685
  O     -271.999    -390.251     675.442
  C     -270.740    -390.180     673.351
  O     -269.782    -389.361     672.606
  C     -270.100    -391.572     673.542
  O     -270.591    -392.560     672.640
  C     -268.610    -391.255     673.472
  O     -267.805    -392.402     673.191
  C     -268.561    -390.124     672.450
  N     -264.109    -388.552     670.504
  C     -264.930    -389.573     670.084
  N     -264.510    -390.290     669.027
  N     -266.055    -389.880     670.670
  C     -266.321    -389.141     671.780
  C     -265.583    -388.104     672.284
  C     -264.356    -387.730     671.610
  O     -263.601    -386.819     671.914
  N     -266.170    -387.576     673.419
  C     -267.252    -388.307     673.589
  N     -267.396    -389.268     672.605
  O     -273.185    -388.566     677.085
  O     -273.343    -391.035     677.413
  H     -266.880    -392.095     673.122
  H     -274.267    -390.739     677.296
  H     -263.265    -388.329     669.999
  H     -267.972    -388.173     674.375
  H     -268.529    -390.501     671.430
  H     -268.295    -390.892     674.470
  H     -263.602    -390.196     668.596
  H     -270.342    -391.977     674.528
  H     -264.998    -391.179     668.866
  H     -271.663    -390.253     672.757
  H     -270.152    -389.436     675.306
  H     -271.424    -388.470     674.526
  P     -271.537    -393.820     672.957
  C     -269.740    -395.412     673.896
  O     -270.877    -394.630     674.202
  O     -271.324    -394.816     671.734
  O     -272.987    -393.484     673.126
  H     -272.177    -394.944     671.273
  H     -269.568    -396.092     674.735
  H     -268.860    -394.763     673.790
  H     -269.886    -395.981     672.986
  H     -269.580    -390.965     678.779
  H     -270.058    -391.593     677.220
  H     -271.077    -391.853     678.615

 3  4  5  6  7  8  9  10  11  12  23  26  30  31 0
 6-311+G(2d,p)
 ****
 33  35  36  37  38 0
 6-311+G(2d,p)
 ****
 1  2  13  14  15  16  17  18  19  20  21  22  24  25 0
 3-21G
 ****
 27  28  29  32  34  39  40  41  42  43  44  45  46  47  48  49 0
 3-21G
 ****


