%nproc=1
%NoSave
%Mem=1900MB
#P OB98/GEN NMR

erre ene a

0 1
  C      584.094     295.245     327.916
  O      583.509     294.823     326.700
  H      585.138     295.512     327.729
  H      584.064     294.437     328.653
  H      583.569     296.120     328.305
  P      581.997     294.287     326.788
  C      582.589     291.862     326.027
  O      581.959     293.095     325.710
  C      582.775     291.039     324.756
  O      581.495     290.699     324.179
  C      583.539     291.762     323.653
  O      584.942     291.767     323.864
  C      583.150     290.917     322.453
  O      583.888     289.681     322.474
  C      581.650     290.673     322.734
  N      580.779     291.667     322.106
  C      580.522     291.504     320.741
  O      581.025     290.571     320.114
  N      579.726     292.428     320.103
  C      579.220     293.417     320.767
  N      578.453     294.305     320.083
  C      579.449     293.615     322.212
  C      580.230     292.717     322.808
  O      581.147     295.436     326.066
  O      581.508     293.922     328.150
  H      583.609     289.169     321.694
  H      580.210     295.139     325.958
  H      579.019     294.464     322.721
  H      580.445     292.801     323.868
  H      581.345     289.676     322.392
  H      583.363     291.403     321.500
  H      583.163     292.778     323.500
  H      583.270     290.097     325.033
  H      578.362     294.178     319.084
  H      581.956     291.322     326.737
  H      578.171     295.196     320.474
  H      583.564     292.045     326.485
  P      585.648     293.181     324.142
  C      587.498     292.920     322.340
  O      587.189     293.029     323.723
  O      585.708     293.245     325.739
  O      584.939     294.366     323.561
  H      585.530     294.149     326.064
  H      588.557     292.826     322.217
  H      587.156     293.795     321.828
  H      587.013     292.057     321.933

 6  7  8  9  10  11  12  13  14  15  16  26  30  31  32  33  35 0
 6-311+G(2d,p)
 ****
 37  38 0
 6-311+G(2d,p)
 ****
 1  2  3  4  5  17  18  19  20  21  22  23  24  25 0
 3-21G
 ****
 27  28  29  34  36  39  40  41  42  43  44  45  46 0
 3-21G
 ****


