%nproc=1
%NoSave
%Mem=1900MB
#P OB98/GEN NMR

erre ene a

0 1
  C      390.171     754.494    -158.853
  O      389.745     753.170    -159.098
  H      389.614     755.166    -159.511
  H      391.237     754.600    -159.077
  H      389.974     754.776    -157.819
  P      390.432     751.965    -158.295
  C      388.071     751.375    -157.462
  O      389.422     751.629    -157.082
  C      387.433     750.335    -156.547
  O      387.888     749.009    -156.918
  C      387.762     750.529    -155.055
  O      386.571     750.423    -154.273
  C      388.686     749.365    -154.740
  O      388.690     749.011    -153.359
  C      388.148     748.301    -155.696
  N      389.076     747.192    -155.863
  C      389.004     746.168    -154.914
  O      388.173     746.231    -153.993
  N      389.891     745.127    -154.993
  C      390.814     745.129    -155.908
  N      391.680     744.084    -155.906
  C      390.939     746.194    -156.920
  C      390.036     747.187    -156.842
  O      391.846     752.209    -157.888
  O      390.264     750.688    -159.253
  H      388.911     749.816    -152.831
  H      390.942     750.016    -159.008
  H      391.723     746.170    -157.661
  H      390.056     748.014    -157.545
  H      387.183     747.892    -155.326
  H      389.713     749.623    -155.017
  H      388.244     751.488    -154.849
  H      386.350     750.337    -156.717
  H      391.564     743.383    -155.191
  H      388.056     751.030    -158.503
  H      392.447     743.993    -156.559
  H      387.508     752.313    -157.384
  P      385.445     751.533    -154.551
  C      383.664     749.955    -155.594
  O      384.551     751.042    -155.797
  O      386.283     752.772    -155.134
  O      384.671     751.911    -153.321
  H      386.282     753.496    -154.466
  H      383.143     749.745    -156.505
  H      382.959     750.208    -154.830
  H      384.221     749.092    -155.295

 6  7  8  9  10  11  12  13  14  15  16  26  30  31  32  33  35 0
 6-311+G(2d,p)
 ****
 37  38 0
 6-311+G(2d,p)
 ****
 1  2  3  4  5  17  18  19  20  21  22  23  24  25 0
 3-21G
 ****
 27  28  29  34  36  39  40  41  42  43  44  45  46 0
 3-21G
 ****


