%nproc=1
%NoSave
%Mem=1900MB
#P OB98/GEN NMR

erre ene a

0 1
  C     -138.413     220.551     192.382
  O     -139.639     219.918     192.757
  P     -141.026     220.647     192.413
  C     -142.985     221.680     193.740
  O     -141.612     221.313     193.756
  C     -143.271     222.784     194.764
  O     -142.982     222.319     196.120
  C     -142.406     224.038     194.535
  O     -143.131     225.218     194.902
  C     -141.269     223.856     195.518
  O     -140.625     225.096     195.810
  C     -142.012     223.225     196.695
  N     -139.068     223.626     200.867
  C     -139.891     224.517     200.259
  N     -140.660     224.328     199.162
  C     -140.537     223.068     198.705
  C     -139.748     222.057     199.223
  C     -138.976     222.378     200.360
  N     -138.117     221.483     200.967
  N     -139.872     220.902     198.482
  C     -140.695     221.227     197.499
  N     -141.140     222.512     197.611
  O     -142.008     219.832     191.633
  O     -140.551     221.932     191.572
  H     -139.777     224.887     196.253
  H     -141.158     222.062     190.818
  H     -139.926     225.506     200.706
  H     -140.975     220.575     196.681
  H     -142.568     223.972     197.278
  H     -140.525     223.169     195.101
  H     -142.049     224.155     193.504
  H     -144.334     223.034     194.737
  H     -143.602     220.799     193.960
  H     -137.524     221.840     201.697
  H     -137.932     220.596     200.511
  H     -143.264     221.989     192.727
  P     -143.837     226.025     193.698
  C     -142.963     227.753     191.940
  O     -142.720     227.008     193.108
  O     -145.137     226.655     194.081
  O     -143.983     224.883     192.580
  H     -143.166     224.380     192.401
  H     -142.134     228.448     191.788
  H     -143.890     228.326     192.037
  H     -143.032     227.086     191.076
  H     -137.589     219.938     192.682
  H     -138.342     221.504     192.863
  H     -138.391     220.684     191.321

 3  4  5  6  7  8  9  10  11  12  22  25  29  30  31  32 0
 6-311+G(2d,p)
 ****
 33  36  37 0
 6-311+G(2d,p)
 ****
 1  2  13  14  15  16  17  18  19  20  21  23  24  26 0
 3-21G
 ****
 27  28  34  35  38  39  40  41  42  43  44  45  46  47  48 0
 3-21G
 ****


