%nproc=1
%NoSave
%Mem=1900MB
#P OB98/GEN NMR

erre ene a

0 1
  C      111.257    -697.064    -327.063
  O      110.929    -695.813    -326.478
  P      110.224    -695.731    -325.038
  C      109.857    -693.676    -323.513
  O      110.738    -694.349    -324.403
  C      110.561    -692.455    -322.918
  O      111.708    -692.887    -322.159
  C      111.092    -691.458    -323.952
  O      110.038    -690.670    -324.486
  C      112.119    -690.705    -323.118
  O      111.473    -689.723    -322.295
  C      112.705    -691.826    -322.231
  N      113.977    -692.336    -322.722
  C      115.109    -691.568    -322.430
  O      115.021    -690.526    -321.773
  N      116.335    -692.019    -322.855
  C      116.423    -693.128    -323.527
  N      117.668    -693.562    -323.866
  C      115.245    -693.935    -323.911
  C      114.069    -693.491    -323.472
  O      110.426    -696.929    -324.172
  O      108.694    -695.409    -325.359
  H      111.155    -689.016    -322.891
  H      108.136    -696.217    -325.499
  H      115.374    -694.839    -324.485
  H      113.162    -694.038    -323.688
  H      112.839    -691.468    -321.200
  H      112.878    -690.192    -323.722
  H      111.595    -691.990    -324.768
  H      109.863    -691.956    -322.227
  H      118.455    -693.073    -323.434
  H      109.580    -694.362    -322.703
  H      117.843    -694.523    -324.126
  H      108.954    -693.382    -324.054
  P      110.398    -689.682    -325.691
  C      109.403    -689.233    -328.041
  O      109.355    -690.011    -326.865
  O      111.800    -690.248    -326.228
  O      110.485    -688.242    -325.297
  H      112.539    -689.703    -325.895
  H      108.808    -689.729    -328.812
  H      110.436    -689.139    -328.405
  H      108.981    -688.241    -327.858
  H      111.716    -696.903    -328.016
  H      110.366    -697.643    -327.190
  H      111.936    -697.589    -326.424

 3  4  5  6  7  8  9  10  11  12  13  23  27  28  29  30  32 0
 6-311+G(2d,p)
 ****
 34  35 0
 6-311+G(2d,p)
 ****
 1  2  14  15  16  17  18  19  20  21  22  24  25  26 0
 3-21G
 ****
 31  33  36  37  38  39  40  41  42  43  44  45  46 0
 3-21G
 ****


