%nproc=1
%NoSave
%Mem=1900MB
#P OB98/GEN NMR

erre ene a

0 1
  C       55.628    -905.706     207.454
  O       55.985    -906.990     206.988
  H       56.142    -905.514     208.398
  H       54.550    -905.646     207.622
  H       55.935    -904.944     206.728
  P       55.256    -907.510     205.656
  C       55.950    -909.104     203.724
  O       56.147    -908.708     205.077
  C       56.948    -910.198     203.360
  O       58.241    -909.613     203.086
  C       57.190    -911.210     204.472
  O       56.156    -912.181     204.557
  C       58.509    -911.814     204.026
  O       58.322    -912.863     203.066
  C       59.238    -910.611     203.397
  N       60.279    -910.088     204.278
  C       61.538    -910.674     204.139
  O       61.779    -911.571     203.330
  N       62.505    -910.214     204.984
  C       62.335    -909.283     205.971
  O       63.238    -908.963     206.735
  C       60.987    -908.718     206.089
  C       60.029    -909.139     205.253
  O       55.500    -906.318     204.620
  O       53.806    -907.828     205.818
  H       54.668    -905.818     204.488
  H       59.208    -913.236     202.899
  H       63.427    -910.625     204.894
  H       60.810    -907.978     206.864
  H       59.021    -908.736     205.322
  H       59.703    -910.899     202.445
  H       59.046    -912.242     204.871
  H       57.332    -910.696     205.425
  H       56.597    -910.703     202.448
  H       56.108    -908.243     203.059
  H       54.918    -909.451     203.601
  P       55.771    -912.727     206.021
  C       53.790    -914.224     206.889
  O       54.319    -913.396     205.866
  O       55.496    -911.351     206.787
  O       56.825    -913.590     206.625
  H       55.213    -910.648     206.175
  H       52.820    -914.571     206.601
  H       53.713    -913.664     207.797
  H       54.438    -915.062     207.041

 6  7  8  9  10  11  12  13  14  15  16  27  31  32  33  34  35 0
 6-311+G(2d,p)
 ****
 36  37 0
 6-311+G(2d,p)
 ****
 1  2  3  4  5  17  18  19  20  21  22  23  24  25 0
 3-21G
 ****
 26  28  29  30  38  39  40  41  42  43  44  45 0
 3-21G
 ****


