%nproc=1
%NoSave
%Mem=1900MB
#P OB98/GEN NMR

erre ene a

0 1
  C     -216.762     282.031     -77.521
  O     -215.437     281.802     -77.967
  P     -215.206     281.336     -79.479
  C     -216.090     278.966     -78.858
  O     -216.161     280.069     -79.745
  C     -215.805     277.674     -79.623
  O     -216.941     277.369     -80.497
  C     -214.552     277.738     -80.511
  O     -213.964     276.428     -80.520
  C     -215.135     278.049     -81.883
  O     -214.255     277.721     -82.949
  C     -216.412     277.194     -81.826
  N     -217.389     277.572     -82.852
  C     -217.702     276.614     -83.811
  O     -217.214     275.494     -83.850
  N     -218.579     277.023     -84.792
  C     -219.080     278.290     -84.949
  O     -219.759     278.617     -85.917
  C     -218.714     279.254     -83.902
  C     -217.898     278.860     -82.913
  O     -213.731     280.700     -79.453
  O     -215.326     282.423     -80.494
  H     -213.366     278.042     -82.699
  H     -213.084     281.344     -79.804
  H     -218.829     276.346     -85.492
  H     -219.105     280.260     -83.990
  H     -217.585     279.556     -82.142
  H     -216.164     276.127     -81.931
  H     -215.372     279.109     -81.947
  H     -213.823     278.482     -80.186
  H     -215.721     276.849     -78.908
  H     -217.045     278.875     -78.332
  H     -215.314     279.143     -78.105
  P     -212.365     276.324     -80.677
  C     -212.685     276.547     -83.264
  O     -212.003     276.964     -82.104
  O     -212.194     274.744     -80.910
  O     -211.610     276.845     -79.497
  H     -212.854     274.379     -81.513
  H     -213.729     276.311     -83.052
  H     -212.195     275.667     -83.681
  H     -212.653     277.354     -83.998
  H     -216.746     282.335     -76.495
  H     -217.331     281.130     -77.617
  H     -217.210     282.801     -78.114

 3  4  5  6  7  8  9  10  11  12  13  23  28  29  30  31  32 0
 6-311+G(2d,p)
 ****
 33  34 0
 6-311+G(2d,p)
 ****
 1  2  14  15  16  17  18  19  20  21  22  24  25  26 0
 3-21G
 ****
 27  35  36  37  38  39  40  41  42  43  44  45 0
 3-21G
 ****


