%nproc=1
%NoSave
%Mem=1900MB
#P OB98/GEN NMR

erre ene a

0 1
  C      -16.498       1.145     -28.027
  O      -15.245       0.703     -28.501
  H      -16.913       0.376     -27.371
  H      -17.178       1.294     -28.870
  H      -16.406       2.076     -27.462
  P      -14.229       1.779     -29.108
  C      -14.722       1.283     -31.592
  O      -14.797       2.236     -30.540
  C      -15.400       1.786     -32.867
  O      -16.814       1.974     -32.640
  C      -14.860       3.144     -33.315
  O      -13.676       3.100     -34.091
  C      -16.028       3.691     -34.130
  O      -15.973       3.216     -35.486
  C      -17.246       3.111     -33.407
  N      -21.299       6.114     -32.604
  C      -21.006       5.323     -33.698
  N      -21.875       5.388     -34.730
  N      -19.949       4.559     -33.772
  C      -19.122       4.671     -32.706
  C      -19.299       5.430     -31.571
  C      -20.502       6.232     -31.475
  O      -20.805       6.955     -30.531
  N      -18.247       5.284     -30.699
  C      -17.404       4.499     -31.338
  N      -17.902       4.079     -32.549
  O      -12.948       0.902     -29.510
  O      -13.849       2.895     -28.184
  H      -15.110       3.465     -35.863
  H      -12.148       1.457     -29.496
  H      -22.142       6.661     -32.589
  H      -16.437       4.184     -30.960
  H      -17.999       2.748     -34.118
  H      -16.012       4.783     -34.177
  H      -22.637       6.047     -34.766
  H      -14.709       3.799     -32.450
  H      -21.563       5.039     -35.639
  H      -15.296       1.030     -33.654
  H      -15.222       0.380     -31.235
  H      -13.680       1.019     -31.792
  P      -12.623       4.303     -34.014
  C      -13.109       5.090     -36.447
  O      -13.097       5.409     -35.072
  O      -11.314       3.671     -34.684
  O      -12.352       4.815     -32.642
  H      -10.711       3.337     -33.994
  H      -13.450       5.936     -37.006
  H      -13.767       4.263     -36.616
  H      -12.120       4.829     -36.761

 6  7  8  9  10  11  12  13  14  15  26  29  33  34 0
 6-311+G(2d,p)
 ****
 36  38  39  40  41 0
 6-311+G(2d,p)
 ****
 1  2  3  4  5  16  17  18  19  20  21  22  23  24  25 0
 3-21G
 ****
 27  28  30  31  32  35  37  42  43  44  45  46  47 0
 3-21G
 ****
 48  49 0
 3-21G
 ****


