%nproc=1
%NoSave
%Mem=1900MB
#P OB98/GEN NMR

erre ene a

0 1
  C      203.772    -201.055     487.984
  O      204.816    -201.356     488.886
  H      203.360    -201.992     487.596
  H      204.147    -200.461     487.144
  H      202.975    -200.506     488.498
  P      205.625    -200.101     489.484
  C      207.692    -201.069     488.226
  O      206.872    -199.938     488.485
  C      209.135    -200.761     488.621
  O      209.945    -201.953     488.584
  C      209.834    -199.757     487.702
  O      209.462    -198.420     487.970
  C      211.286    -200.030     488.064
  O      211.585    -199.423     489.336
  C      211.290    -201.572     488.167
  N      211.649    -202.230     486.913
  C      212.966    -202.053     486.472
  O      213.758    -201.362     487.109
  N      213.347    -202.637     485.281
  C      212.499    -203.341     484.605
  N      212.927    -203.888     483.426
  C      211.114    -203.570     485.043
  C      210.754    -202.990     486.190
  O      206.308    -200.685     490.807
  O      204.829    -198.855     489.703
  H      211.682    -198.466     489.173
  H      206.930    -200.020     491.186
  H      210.432    -204.156     484.440
  H      209.748    -203.112     486.579
  H      211.975    -201.907     488.953
  H      211.988    -199.615     487.336
  H      209.682    -200.014     486.645
  H      209.129    -200.403     489.665
  H      213.862    -203.664     483.118
  H      207.638    -201.303     487.157
  H      212.295    -204.290     482.749
  H      207.337    -201.935     488.799
  P      209.542    -197.371     486.748
  C      211.784    -196.356     487.597
  O      211.099    -197.018     486.533
  O      208.942    -196.033     487.388
  O      208.809    -197.787     485.507
  H      208.392    -195.549     486.731
  H      212.802    -196.187     487.315
  H      211.754    -196.967     488.475
  H      211.309    -195.418     487.798

 6  7  8  9  10  11  12  13  14  15  16  26  30  31  32  33  35 0
 6-311+G(2d,p)
 ****
 37  38 0
 6-311+G(2d,p)
 ****
 1  2  3  4  5  17  18  19  20  21  22  23  24  25 0
 3-21G
 ****
 27  28  29  34  36  39  40  41  42  43  44  45  46 0
 3-21G
 ****


