%nproc=1
%NoSave
%Mem=1900MB
#P OB98/GEN NMR

erre ene a

0 1
  C     -291.212    -367.540     410.907
  O     -292.539    -367.830     411.365
  P     -293.355    -366.867     412.357
  C     -295.699    -367.742     411.720
  O     -294.742    -367.571     412.759
  C     -295.368    -368.949     410.834
  O     -295.213    -370.148     411.659
  C     -296.430    -369.264     409.763
  O     -295.718    -369.672     408.587
  C     -297.177    -370.431     410.395
  O     -297.935    -371.188     409.473
  C     -296.007    -371.180     411.031
  N     -296.368    -372.204     412.002
  C     -295.923    -373.515     411.757
  O     -295.300    -373.802     410.739
  N     -296.220    -374.485     412.682
  C     -296.899    -374.198     413.749
  N     -297.142    -375.208     414.622
  C     -297.401    -372.843     414.032
  C     -297.100    -371.909     413.128
  O     -293.529    -365.476     411.835
  O     -292.524    -366.854     413.726
  H     -292.584    -365.967     414.130
  H     -297.324    -371.552     408.806
  H     -297.952    -372.637     414.934
  H     -297.412    -370.876     413.280
  H     -295.386    -371.623     410.243
  H     -297.871    -370.030     411.148
  H     -297.065    -368.408     409.512
  H     -294.394    -368.768     410.363
  H     -296.773    -376.119     414.395
  H     -295.699    -366.841     411.097
  H     -297.651    -375.088     415.487
  H     -296.691    -367.855     412.160
  P     -295.233    -368.568     407.535
  C     -292.993    -369.558     406.644
  O     -294.368    -369.317     406.411
  O     -294.098    -367.794     408.360
  O     -296.270    -367.606     407.058
  H     -294.011    -366.886     408.014
  H     -292.760    -370.584     406.342
  H     -292.719    -369.438     407.695
  H     -292.403    -368.863     406.042
  H     -290.879    -368.324     410.259
  H     -290.553    -367.467     411.747
  H     -291.214    -366.613     410.373

 3  4  5  6  7  8  9  10  11  12  13  24  27  28  29  30  32 0
 6-311+G(2d,p)
 ****
 34  35 0
 6-311+G(2d,p)
 ****
 1  2  14  15  16  17  18  19  20  21  22  23  25  26 0
 3-21G
 ****
 31  33  36  37  38  39  40  41  42  43  44  45  46 0
 3-21G
 ****


