%nproc=1
%NoSave
%Mem=1900MB
#P OB98/GEN NMR

erre ene a

0 1
  C     -322.538      58.702    -163.900
  O     -322.665      60.069    -164.248
  P     -324.072      60.826    -164.149
  C     -323.891      61.170    -161.612
  O     -324.653      60.599    -162.670
  C     -324.714      62.183    -160.810
  O     -325.852      61.499    -160.204
  C     -323.933      62.873    -159.679
  O     -324.387      64.236    -159.636
  C     -324.374      62.126    -158.443
  O     -324.187      62.881    -157.252
  C     -325.831      61.817    -158.796
  N     -326.379      60.722    -158.000
  C     -327.766      60.720    -157.795
  O     -328.448      61.672    -158.172
  N     -328.337      59.635    -157.173
  C     -327.567      58.740    -156.622
  N     -328.170      57.650    -156.068
  C     -326.092      58.842    -156.600
  C     -325.574      59.828    -157.339
  O     -325.033      60.519    -165.249
  O     -323.682      62.382    -164.150
  H     -324.193      62.840    -164.851
  H     -324.501      62.348    -156.488
  H     -325.503      58.147    -156.032
  H     -324.498      59.974    -157.405
  H     -326.462      62.704    -158.656
  H     -323.796      61.193    -158.348
  H     -322.848      62.862    -159.851
  H     -325.121      62.926    -161.507
  H     -329.180      57.589    -156.137
  H     -323.031      61.684    -162.053
  H     -327.667      56.772    -155.912
  H     -323.512      60.380    -160.959
  P     -323.340      65.375    -159.191
  C     -323.575      66.382    -161.572
  O     -322.708      66.013    -160.518
  O     -322.120      64.480    -158.635
  O     -323.792      66.322    -158.129
  H     -321.607      65.009    -157.987
  H     -322.969      66.729    -162.419
  H     -324.237      67.195    -161.251
  H     -324.175      65.524    -161.895
  H     -321.523      58.392    -164.036
  H     -323.177      58.114    -164.525
  H     -322.818      58.567    -162.876

 3  4  5  6  7  8  9  10  11  12  13  24  27  28  29  30  32 0
 6-311+G(2d,p)
 ****
 34  35 0
 6-311+G(2d,p)
 ****
 1  2  14  15  16  17  18  19  20  21  22  23  25  26 0
 3-21G
 ****
 31  33  36  37  38  39  40  41  42  43  44  45  46 0
 3-21G
 ****


