%nproc=1
%NoSave
%Mem=1900MB
#P OB98/GEN NMR

erre ene a

0 1
  C      270.420     374.286     354.777
  O      269.670     374.515     355.955
  H      271.403     374.750     354.895
  H      269.922     374.742     353.919
  H      270.557     373.214     354.604
  P      268.216     373.849     356.084
  C      267.565     376.145     357.043
  O      267.397     374.740     357.146
  C      267.895     376.747     358.408
  O      266.737     376.617     359.272
  C      269.081     376.068     359.107
  O      269.835     377.070     359.794
  C      268.418     375.151     360.115
  O      269.255     374.879     361.239
  C      267.155     375.930     360.468
  N      265.609     373.177     364.416
  C      266.695     374.023     364.289
  N      267.508     374.132     365.357
  N      266.963     374.697     363.200
  C      266.060     374.502     362.208
  C      264.947     373.694     362.214
  C      264.667     372.941     363.420
  O      263.726     372.174     363.584
  N      264.290     373.746     361.007
  C      265.011     374.580     360.276
  N      266.099     375.058     360.958
  O      268.206     372.382     356.372
  O      267.507     374.189     354.694
  H      269.411     375.735     361.693
  H      267.534     373.418     354.094
  H      265.455     372.675     365.272
  H      264.793     374.861     359.254
  H      267.335     376.680     361.256
  H      268.167     374.193     359.636
  H      267.357     373.655     366.234
  H      269.731     375.524     358.415
  H      268.301     374.762     365.298
  H      268.079     377.822     358.283
  H      266.631     376.581     356.669
  H      268.367     376.367     356.330
  P      271.181     377.622     359.118
  C      272.619     375.684     360.031
  O      272.428     377.095     359.985
  O      271.196     379.082     358.803
  O      271.290     376.741     357.779
  H      271.745     377.269     357.095
  H      273.474     375.459     360.634
  H      272.774     375.313     359.040
  H      271.752     375.220     360.454

 6  7  8  9  10  11  12  13  14  15  26  29  33  34 0
 6-311+G(2d,p)
 ****
 36  38  39  40  41 0
 6-311+G(2d,p)
 ****
 1  2  3  4  5  16  17  18  19  20  21  22  23  24  25 0
 3-21G
 ****
 27  28  30  31  32  35  37  42  43  44  45  46  47 0
 3-21G
 ****
 48  49 0
 3-21G
 ****


