%nproc=1
%NoSave
%Mem=1900MB
#P OB98/GEN NMR

erre ene a

0 1
  C        0.162     109.242    -522.936
  O        1.407     109.463    -522.294
  P        2.779     109.022    -522.998
  C        3.753     111.383    -522.692
  O        3.424     110.355    -523.621
  C        5.254     111.651    -522.698
  O        5.955     110.414    -522.437
  C        5.769     112.199    -524.025
  O        6.817     113.144    -523.773
  C        6.377     110.987    -524.720
  O        7.394     111.376    -525.656
  C        6.875     110.174    -523.522
  N        9.828     105.979    -523.681
  C       10.102     107.251    -523.326
  N        9.272     108.321    -523.331
  C        8.033     107.959    -523.702
  C        7.610     106.694    -524.088
  C        8.568     105.672    -524.069
  N        8.286     104.366    -524.412
  N        6.268     106.717    -524.428
  C        5.892     107.963    -524.237
  N        6.921     108.751    -523.789
  O        2.663     107.887    -523.955
  O        3.764     108.678    -521.784
  H        6.972     111.968    -526.311
  H        4.317     107.907    -522.005
  H       11.119     107.439    -522.999
  H        4.896     108.346    -524.416
  H        7.872     110.501    -523.195
  H        5.598     110.454    -525.274
  H        4.983     112.665    -524.633
  H        5.492     112.346    -521.882
  H        3.451     111.057    -521.691
  H        9.001     103.681    -524.256
  H        7.315     104.103    -524.531
  H        3.192     112.294    -522.943
  P        7.012     114.289    -524.884
  C        5.351     115.831    -523.605
  O        5.675     115.167    -524.803
  O        7.382     113.725    -526.213
  O        8.150     115.187    -524.200
  H        8.147     115.092    -523.224
  H        4.393     116.344    -523.732
  H        6.119     116.575    -523.366
  H        5.262     115.115    -522.778
  H       -0.630     109.602    -522.313
  H        0.031     108.194    -523.110
  H        0.145     109.763    -523.870

 3  4  5  6  7  8  9  10  11  12  22  25  29  30  31  32 0
 6-311+G(2d,p)
 ****
 33  36  37 0
 6-311+G(2d,p)
 ****
 1  2  13  14  15  16  17  18  19  20  21  23  24  26 0
 3-21G
 ****
 27  28  34  35  38  39  40  41  42  43  44  45  46  47  48 0
 3-21G
 ****


