%nproc=1
%NoSave
%Mem=1900MB
#P OB98/GEN NMR

erre ene a

0 1
  C     -226.817    -895.070      60.333
  O     -228.218    -894.850      60.146
  P     -228.669    -894.030      58.841
  C     -230.931    -895.130      58.164
  O     -229.542    -895.000      57.904
  C     -231.262    -896.560      58.622
  O     -230.542    -896.910      59.813
  C     -232.727    -896.750      58.967
  O     -233.505    -896.890      57.784
  C     -232.688    -898.020      59.823
  O     -232.821    -899.210      59.020
  C     -231.281    -897.950      60.472
  N     -231.332    -897.740      61.907
  C     -231.448    -898.900      62.699
  O     -231.516    -900.000      62.152
  N     -231.499    -898.750      64.054
  C     -231.464    -897.570      64.591
  N     -231.535    -897.500      65.946
  C     -231.376    -896.330      63.800
  C     -231.317    -896.480      62.466
  O     -227.297    -893.870      58.012
  O     -229.295    -892.710      59.130
  H     -233.669    -899.100      58.529
  H     -227.304    -893.030      57.518
  H     -231.369    -895.370      64.276
  H     -231.257    -895.610      61.810
  H     -230.734    -898.880      60.286
  H     -233.501    -898.030      60.559
  H     -233.089    -895.910      59.567
  H     -230.972    -897.250      57.815
  H     -231.599    -898.370      66.464
  H     -231.514    -894.880      57.269
  H     -231.523    -896.630      66.453
  H     -231.208    -894.400      58.929
  P     -234.342    -895.620      57.295
  C     -233.885    -895.660      54.778
  O     -233.567    -895.060      56.017
  O     -233.972    -894.520      58.414
  O     -235.825    -895.790      57.161
  H     -234.510    -893.720      58.285
  H     -233.452    -895.060      53.975
  H     -234.968    -895.690      54.630
  H     -233.472    -896.670      54.728
  H     -226.660    -895.625      61.235
  H     -226.314    -894.128      60.402
  H     -226.429    -895.622      59.503

 3  4  5  6  7  8  9  10  11  12  13  21  23  27  28  29  30  32 0
 6-311+G(2d,p)
 ****
 34  35 0
 6-311+G(2d,p)
 ****
 1  2  14  15  16  17  18  19  20  22  24  25  26 0
 3-21G
 ****
 31  33  36  37  38  39  40  41  42  43  44  45  46 0
 3-21G
 ****


