%nproc=1
%NoSave
%Mem=1900MB
#P OB98/GEN NMR

erre ene a

0 1
  C       28.759    -167.775    -390.146
  O       29.223    -169.090    -389.966
  P       28.908    -170.291    -390.967
  C       27.915    -171.993    -389.245
  O       28.969    -171.666    -390.147
  C       28.316    -173.160    -388.327
  O       28.564    -174.327    -389.155
  C       29.630    -172.863    -387.572
  O       29.615    -173.277    -386.215
  C       30.687    -173.476    -388.479
  O       31.919    -173.733    -387.819
  C       29.952    -174.690    -389.036
  N       33.832    -176.645    -391.689
  C       33.680    -176.541    -390.317
  N       34.770    -176.830    -389.573
  N       32.566    -176.159    -389.746
  C       31.603    -175.792    -390.619
  C       31.640    -175.849    -391.996
  C       32.860    -176.311    -392.615
  O       33.079    -176.305    -393.825
  N       30.497    -175.336    -392.561
  C       29.785    -174.931    -391.527
  N       30.429    -175.159    -390.330
  O       29.568    -170.239    -392.309
  O       27.318    -170.109    -391.203
  H       32.541    -174.086    -388.487
  H       27.130    -170.378    -392.125
  H       34.742    -176.868    -392.074
  H       28.820    -174.442    -391.585
  H       30.027    -175.544    -388.364
  H       30.899    -172.744    -389.276
  H       35.679    -176.986    -389.993
  H       29.793    -171.781    -387.510
  H       34.759    -176.532    -388.600
  H       27.483    -173.397    -387.658
  H       27.056    -172.272    -389.863
  H       27.629    -171.117    -388.650
  P       30.136    -172.489    -384.924
  C       31.716    -174.343    -384.111
  O       30.578    -173.559    -383.815
  O       28.817    -171.835    -384.285
  O       31.148    -171.435    -385.204
  H       29.030    -170.941    -383.953
  H       31.745    -175.198    -383.426
  H       32.621    -173.745    -383.965
  H       31.681    -174.711    -385.143
  H       29.106    -167.161    -389.341
  H       27.689    -167.773    -390.161
  H       29.129    -167.390    -391.073

 3  4  5  6  7  8  9  10  11  12  23  26  30  31 0
 6-311+G(2d,p)
 ****
 33  35  36  37  38 0
 6-311+G(2d,p)
 ****
 1  2  13  14  15  16  17  18  19  20  21  22  24  25 0
 3-21G
 ****
 27  28  29  32  34  39  40  41  42  43  44  45  46  47  48  49 0
 3-21G
 ****


