%nproc=1
%NoSave
%Mem=1900MB
#P OB98/GEN NMR

erre ene a

0 1
  C      142.373     -60.348      30.243
  O      143.214     -59.214      30.370
  P      144.113     -59.096      31.694
  C      143.437     -59.261      34.231
  O      143.083     -58.902      32.905
  C      142.230     -59.861      34.956
  O      141.858     -61.112      34.339
  C      142.470     -60.188      36.424
  O      142.437     -59.025      37.236
  C      141.348     -61.183      36.692
  O      140.108     -60.490      36.919
  C      141.287     -61.958      35.361
  N      141.965     -63.252      35.415
  C      141.186     -64.337      35.805
  O      139.993     -64.242      36.092
  N      141.834     -65.542      35.873
  C      143.165     -65.752      35.659
  O      143.703     -66.844      35.776
  C      143.943     -64.562      35.282
  C      143.317     -63.387      35.179
  O      144.765     -57.651      31.478
  O      145.087     -60.214      31.843
  H      144.199     -57.076      30.933
  H      139.440     -61.176      37.113
  H      141.286     -66.348      36.132
  H      145.005     -64.687      35.112
  H      143.877     -62.498      34.912
  H      140.244     -62.127      35.068
  H      141.539     -61.808      37.571
  H      143.439     -60.688      36.540
  H      141.387     -59.166      34.850
  H      143.777     -58.369      34.763
  H      144.260     -59.983      34.196
  P      143.115     -59.143      38.690
  C      142.338     -60.256      40.923
  O      141.987     -59.728      39.665
  O      143.236     -57.602      39.104
  O      144.410     -59.887      38.687
  H      142.445     -57.087      38.874
  H      141.449     -60.265      41.560
  H      143.112     -59.655      41.407
  H      142.695     -61.283      40.802
  H      141.837     -60.293      29.318
  H      141.678     -60.370      31.057
  H      142.968     -61.237      30.258

 3  4  5  6  7  8  9  10  11  12  13  24  28  29  30  31  32 0
 6-311+G(2d,p)
 ****
 33  34 0
 6-311+G(2d,p)
 ****
 1  2  14  15  16  17  18  19  20  21  22  23  25  26  27 0
 3-21G
 ****
 35  36  37  38  39  40  41  42  43  44  45 0
 3-21G
 ****


