%nproc=1
%NoSave
%Mem=1900MB
#P OB98/GEN NMR

erre ene a

0 1
  C     1526.788      22.605     756.417
  O     1527.720      23.474     755.747
  P     1527.093      24.512     754.702
  C     1527.937      23.493     752.481
  O     1526.829      23.747     753.315
  C     1527.567      22.601     751.273
  O     1528.549      22.746     750.207
  C     1527.520      21.093     751.640
  O     1526.497      20.486     750.837
  C     1528.874      20.581     751.165
  O     1528.864      19.146     750.982
  C     1529.057      21.413     749.895
  N     1532.877      18.791     747.695
  C     1531.570      18.476     747.989
  N     1530.625      19.225     748.586
  C     1531.098      20.453     748.887
  C     1532.407      20.926     748.659
  C     1533.289      20.018     748.054
  N     1534.610      20.361     747.793
  N     1532.531      22.227     749.146
  C     1531.342      22.518     749.629
  N     1530.463      21.479     749.472
  O     1528.312      25.487     754.345
  O     1525.907      25.293     755.199
  H     1528.271      18.975     750.202
  H     1528.179      26.352     754.792
  H     1531.269      17.467     747.670
  H     1531.079      23.444     750.131
  H     1528.486      21.006     749.039
  H     1529.634      20.841     751.905
  H     1527.333      20.887     752.688
  H     1526.618      22.913     750.889
  H     1528.745      22.976     753.052
  H     1535.186      19.657     747.364
  H     1534.965      21.243     748.083
  H     1528.396      24.446     752.138
  P     1525.310      19.729     751.600
  C     1526.224      17.320     751.239
  O     1525.978      18.360     752.142
  O     1524.362      19.229     750.451
  O     1524.592      20.550     752.615
  H     1523.471      19.102     750.793
  H     1527.201      16.870     751.472
  H     1526.255      17.652     750.193
  H     1525.458      16.542     751.348
  H     1527.319      21.960     757.086
  H     1526.266      22.015     755.693
  H     1526.086      23.193     756.970

 3  4  5  6  7  8  9  10  11  12  22  25  29  30  31  32 0
 6-311+G(2d,p)
 ****
 33  36  37 0
 6-311+G(2d,p)
 ****
 1  2  13  14  15  16  17  18  19  20  21  23  24  26 0
 3-21G
 ****
 27  28  34  35  38  39  40  41  42  43  44  45  46  47  48 0
 3-21G
 ****


