%nproc=1
%NoSave
%Mem=1900MB
#P OB98/GEN NMR

erre ene a

0 1
  C     -596.061     182.263     150.449
  O     -597.367     181.916     150.025
  H     -596.001     182.144     151.532
  H     -595.858     183.306     150.196
  H     -595.308     181.617     149.987
  P     -597.644     181.715     148.460
  C     -598.765     184.044     148.427
  O     -598.894     182.665     148.103
  C     -600.144     184.718     148.470
  O     -600.725     184.688     147.136
  C     -601.133     184.043     149.423
  O     -602.013     185.066     149.931
  C     -601.894     183.127     148.488
  O     -603.111     182.691     149.043
  C     -601.995     184.010     147.240
  N     -602.310     183.243     146.034
  C     -603.655     182.977     145.789
  O     -604.555     183.332     146.561
  N     -603.937     182.262     144.675
  C     -603.016     181.730     143.809
  O     -603.326     181.061     142.827
  C     -601.615     182.008     144.136
  C     -601.320     182.739     145.213
  O     -597.784     180.301     148.003
  O     -596.426     182.465     147.739
  H     -603.638     182.198     148.376
  H     -596.230     182.032     146.887
  H     -604.907     182.071     144.479
  H     -600.856     181.599     143.473
  H     -600.291     182.968     145.472
  H     -602.773     184.772     147.371
  H     -601.298     182.227     148.270
  H     -600.650     183.514     150.247
  H     -600.002     185.775     148.726
  H     -598.145     184.514     147.654
  H     -598.271     184.140     149.394
  P     -601.795     185.734     151.371
  C     -602.921     183.635     152.348
  O     -602.819     185.055     152.410
  O     -601.834     187.232     151.364
  O     -600.365     185.210     151.855
  H     -599.955     185.860     152.456
  H     -603.625     183.296     153.078
  H     -601.964     183.200     152.546
  H     -603.250     183.343     151.373

 6  7  8  9  10  11  12  13  14  15  16  26  31  32  33  34  35 0
 6-311+G(2d,p)
 ****
 36  37 0
 6-311+G(2d,p)
 ****
 1  2  3  4  5  17  18  19  20  21  22  23  24  25 0
 3-21G
 ****
 27  28  29  30  38  39  40  41  42  43  44  45 0
 3-21G
 ****


