%nproc=1
%NoSave
%Mem=1900MB
#P OB98/GEN NMR

erre ene a

0 1
  C      303.528    -307.933     -90.010
  O      302.184    -308.183     -90.387
  P      301.364    -309.416     -89.766
  C      302.026    -311.899     -89.682
  O      301.977    -310.718     -90.475
  C      303.095    -312.846     -90.220
  O      304.372    -312.166     -90.175
  C      303.299    -314.137     -89.428
  O      302.403    -315.187     -89.764
  C      304.708    -314.520     -89.872
  O      304.658    -315.128     -91.176
  C      305.402    -313.157     -89.947
  N      310.012    -312.988     -87.730
  C      309.621    -313.331     -88.976
  N      308.370    -313.367     -89.488
  C      307.475    -312.960     -88.570
  C      307.723    -312.579     -87.265
  C      309.066    -312.601     -86.843
  N      309.461    -312.233     -85.578
  N      306.547    -312.245     -86.622
  C      305.612    -312.412     -87.533
  N      306.124    -312.835     -88.730
  O      299.883    -309.275     -89.838
  O      301.903    -309.535     -88.266
  H      304.265    -316.015     -91.060
  H      301.290    -310.073     -87.733
  H      310.418    -313.615     -89.661
  H      304.557    -312.243     -87.372
  H      306.110    -313.092     -90.784
  H      305.184    -315.241     -89.202
  H      303.304    -313.948     -88.347
  H      302.866    -313.067     -91.271
  H      301.047    -312.391     -89.742
  H      310.452    -312.155     -85.407
  H      308.782    -311.791     -84.975
  H      302.218    -311.636     -88.640
  P      302.296    -316.417     -88.731
  C      304.263    -317.569     -87.449
  O      303.764    -317.053     -88.665
  O      301.194    -317.374     -89.025
  O      302.145    -315.679     -87.320
  H      302.927    -315.187     -87.025
  H      305.201    -318.096     -87.650
  H      303.555    -318.277     -87.010
  H      304.459    -316.760     -86.746
  H      303.891    -307.073     -90.533
  H      304.131    -308.781     -90.257
  H      303.576    -307.756     -88.956

 3  4  5  6  7  8  9  10  11  12  22  25  29  30  31  32 0
 6-311+G(2d,p)
 ****
 33  36  37 0
 6-311+G(2d,p)
 ****
 1  2  13  14  15  16  17  18  19  20  21  23  24  26 0
 3-21G
 ****
 27  28  34  35  38  39  40  41  42  43  44  45  46  47  48 0
 3-21G
 ****


