%nproc=1
%NoSave
%Mem=1900MB
#P OB98/GEN NMR

erre ene a

0 1
  C      828.189    -667.593    -898.160
  O      829.571    -667.398    -897.930
  H      827.663    -666.671    -897.930
  H      827.820    -668.387    -897.510
  H      827.998    -667.857    -899.200
  P      830.607    -668.465    -898.530
  C      830.201    -670.193    -896.640
  O      830.137    -669.923    -898.030
  C      830.273    -671.696    -896.370
  O      831.609    -672.181    -896.680
  C      830.019    -671.977    -894.870
  O      829.454    -673.269    -894.660
  C      831.431    -671.968    -894.290
  O      831.537    -672.667    -893.060
  C      832.226    -672.584    -895.430
  N      836.965    -673.584    -893.810
  C      835.781    -674.191    -893.450
  N      835.843    -675.167    -892.520
  N      834.603    -673.834    -893.950
  C      834.677    -672.798    -894.810
  C      835.805    -672.103    -895.220
  C      837.078    -672.519    -894.700
  O      838.163    -672.009    -894.960
  N      835.465    -671.084    -896.100
  C      834.160    -671.163    -896.190
  N      833.634    -672.199    -895.440
  O      831.945    -668.231    -897.660
  O      830.892    -668.359    -900.000
  H      832.432    -672.539    -892.720
  H      832.722    -668.517    -898.150
  H      837.829    -673.890    -893.400
  H      833.545    -670.499    -896.810
  H      832.189    -673.675    -895.380
  H      831.705    -670.922    -894.090
  H      836.687    -675.344    -891.990
  H      829.389    -671.228    -894.430
  H      834.979    -675.406    -892.030
  H      829.582    -672.238    -897.020
  H      829.287    -669.767    -896.180
  H      831.055    -669.674    -896.190
  P      827.878    -673.334    -894.340
  C      828.335    -673.667    -891.760
  O      827.690    -672.928    -892.790
  O      827.562    -674.902    -894.370
  O      827.032    -672.556    -895.300
  H      827.078    -675.133    -895.180
  H      828.087    -673.244    -890.809
  H      829.395    -673.627    -891.903
  H      828.008    -674.685    -891.794

 6  7  8  9  10  11  12  13  14  15  26  29  33  34 0
 6-311+G(2d,p)
 ****
 36  38  39  40  41 0
 6-311+G(2d,p)
 ****
 1  2  3  4  5  16  17  18  19  20  21  22  23  24  25 0
 3-21G
 ****
 27  28  30  31  32  35  37  42  43  44  45  46  47 0
 3-21G
 ****
 48  49 0
 3-21G
 ****


