%nproc=1
%NoSave
%Mem=1900MB
#P OB98/GEN NMR

erre ene a

0 1
  C      331.918     237.516     -16.153
  O      332.041     238.381     -15.019
  P      333.440     238.364     -14.230
  C      333.421     240.967     -14.522
  O      334.154     239.754     -14.591
  C      334.360     242.158     -14.716
  O      335.284     242.265     -13.604
  C      335.233     242.064     -15.956
  O      334.488     242.331     -17.136
  C      336.308     243.095     -15.635
  O      335.828     244.421     -15.915
  C      336.476     242.912     -14.109
  N      337.677     242.165     -13.757
  C      338.786     242.932     -13.404
  O      338.782     244.162     -13.410
  N      339.910     242.232     -13.065
  C      340.043     240.874     -13.071
  O      341.075     240.303     -12.743
  C      338.854     240.119     -13.496
  C      337.741     240.787     -13.815
  O      334.253     237.269     -15.063
  O      333.285     238.070     -12.774
  H      334.047     237.285     -16.014
  H      335.068     244.569     -15.317
  H      340.721     242.769     -12.795
  H      338.933     239.039     -13.539
  H      336.857     240.248     -14.133
  H      336.527     243.889     -13.614
  H      337.221     242.946     -16.214
  H      335.685     241.070     -16.021
  H      333.754     243.069     -14.748
  H      332.932     241.052     -13.546
  H      332.637     240.951     -15.285
  P      334.478     241.184     -18.261
  C      331.906     240.942     -17.861
  O      333.161     240.313     -18.011
  O      335.668     240.241     -17.752
  O      334.654     241.706     -19.650
  H      335.644     240.083     -16.797
  H      331.119     240.210     -18.047
  H      331.789     241.771     -18.566
  H      331.805     241.312     -16.836
  H      330.944     237.626     -16.582
  H      332.059     236.501     -15.845
  H      332.659     237.774     -16.880

 3  4  5  6  7  8  9  10  11  12  13  24  28  29  30  31  32 0
 6-311+G(2d,p)
 ****
 33  34 0
 6-311+G(2d,p)
 ****
 1  2  14  15  16  17  18  19  20  21  22  23  25  26  27 0
 3-21G
 ****
 35  36  37  38  39  40  41  42  43  44  45 0
 3-21G
 ****


