%nproc=1
%NoSave
%Mem=1900MB
#P OB98/GEN NMR

erre ene a

0 1
  C     -527.789    1709.810      73.979
  O     -528.977    1709.082      73.789
  H     -527.620    1710.437      73.095
  H     -526.955    1709.141      74.100
  H     -527.887    1710.472      74.857
  P     -529.545    1708.181      74.988
  C     -531.695    1709.630      75.235
  O     -530.519    1709.128      75.875
  C     -532.136    1710.950      75.893
  O     -532.550    1710.692      77.252
  C     -531.008    1712.008      75.924
  O     -531.574    1713.282      75.690
  C     -530.502    1711.922      77.361
  O     -529.927    1713.142      77.793
  C     -531.769    1711.535      78.112
  N     -529.387    1711.965      82.571
  C     -529.590    1712.901      81.559
  N     -529.025    1714.106      81.765
  N     -530.229    1712.654      80.460
  C     -530.734    1711.383      80.407
  C     -530.620    1710.387      81.323
  C     -529.882    1710.660      82.533
  O     -529.680    1709.864      83.453
  N     -531.291    1709.240      80.896
  C     -531.756    1709.563      79.708
  N     -531.467    1710.848      79.373
  O     -528.521    1707.453      75.777
  O     -530.576    1707.180      74.299
  H     -529.651    1713.019      78.731
  H     -530.198    1706.280      74.240
  H     -528.883    1712.185      83.371
  H     -532.340    1708.915      79.067
  H     -532.375    1712.411      78.378
  H     -529.754    1711.118      77.457
  H     -528.537    1714.374      82.604
  H     -530.230    1711.798      75.194
  H     -529.172    1714.834      81.056
  H     -532.996    1711.334      75.331
  H     -532.471    1708.860      75.382
  H     -531.513    1709.751      74.181
  P     -531.069    1714.136      74.398
  C     -533.415    1714.779      73.543
  O     -532.213    1714.076      73.275
  O     -529.683    1713.808      73.956
  O     -531.171    1715.658      74.929
  H     -530.449    1716.160      74.516
  H     -534.089    1714.659      72.721
  H     -533.198    1715.818      73.677
  H     -533.865    1714.390      74.433

 6  7  8  9  10  11  12  13  14  15  26  29  33  34 0
 6-311+G(2d,p)
 ****
 36  38  39  40  41 0
 6-311+G(2d,p)
 ****
 1  2  3  4  5  16  17  18  19  20  21  22  23  24  25 0
 3-21G
 ****
 27  28  30  31  32  35  37  42  43  44  45  46  47 0
 3-21G
 ****
 48  49 0
 3-21G
 ****


