%nproc=1
%NoSave
%Mem=1900MB
#P OB98/GEN NMR

erre ene a

0 1
  C      103.306     -70.679    -262.809
  O      102.854     -69.626    -263.658
  P      103.650     -69.079    -264.928
  C      104.639     -66.865    -263.929
  O      104.868     -68.184    -264.406
  C      105.884     -66.233    -263.281
  O      106.277     -67.015    -262.123
  C      107.068     -66.266    -264.248
  O      107.210     -65.257    -265.231
  C      108.290     -66.438    -263.357
  O      108.903     -65.195    -263.018
  C      107.717     -67.110    -262.105
  N      110.419     -70.576    -259.484
  C      110.337     -69.210    -259.300
  N      111.113     -68.687    -258.325
  N      109.581     -68.427    -260.018
  C      108.926     -69.063    -261.014
  C      108.941     -70.408    -261.311
  C      109.739     -71.278    -260.472
  O      109.835     -72.495    -260.585
  N      108.169     -70.689    -262.408
  C      107.709     -69.515    -262.792
  N      108.137     -68.495    -261.972
  O      102.810     -68.506    -266.019
  O      104.371     -70.400    -265.511
  H      109.579     -65.369    -262.341
  H      104.418     -70.286    -266.482
  H      110.999     -71.137    -258.888
  H      107.064     -69.349    -263.647
  H      108.050     -66.597    -261.195
  H      109.056     -67.034    -263.868
  H      111.804     -69.217    -257.819
  H      106.988     -67.200    -264.821
  H      111.222     -67.672    -258.329
  H      105.659     -65.231    -262.904
  H      103.822     -66.929    -263.205
  H      104.285     -66.231    -264.741
  P      106.983     -65.428    -266.807
  C      109.352     -66.403    -266.893
  O      108.012     -66.535    -267.336
  O      107.570     -64.078    -267.432
  O      105.562     -65.637    -267.221
  H      107.254     -63.962    -268.348
  H      110.001     -66.997    -267.539
  H      109.437     -66.773    -265.866
  H      109.673     -65.356    -266.929
  H      102.586     -70.848    -262.036
  H      104.243     -70.406    -262.370
  H      103.428     -71.573    -263.384

 3  4  5  6  7  8  9  10  11  12  23  26  30  31 0
 6-311+G(2d,p)
 ****
 33  35  36  37  38 0
 6-311+G(2d,p)
 ****
 1  2  13  14  15  16  17  18  19  20  21  22  24  25 0
 3-21G
 ****
 27  28  29  32  34  39  40  41  42  43  44  45  46  47  48  49 0
 3-21G
 ****


