%nproc=1
%NoSave
%Mem=1900MB
#P OB98/GEN NMR

erre ene a

0 1
  C       16.588    -118.210     113.448
  O       15.808    -118.117     112.263
  P       16.564    -117.759     110.888
  C       16.794    -115.220     111.342
  O       16.208    -116.229     110.542
  C       16.583    -113.831     110.723
  O       16.931    -112.824     111.716
  C       17.429    -113.554     109.476
  O       16.656    -112.698     108.624
  C       18.613    -112.773     110.021
  O       19.265    -112.009     109.011
  C       17.918    -111.946     111.107
  N       20.534    -107.882     112.785
  C       19.663    -108.032     111.766
  N       19.003    -109.149     111.374
  C       19.326    -110.186     112.167
  C       20.218    -110.191     113.226
  C       20.847    -108.972     113.535
  N       21.724    -108.814     114.581
  N       20.302    -111.459     113.786
  C       19.475    -112.201     113.079
  N       18.845    -111.458     112.108
  O       15.731    -118.593     109.802
  O       18.013    -118.110     110.845
  H       18.616    -111.379     108.642
  H       16.281    -119.318     109.448
  H       19.461    -107.130     111.175
  H       19.304    -113.251     113.222
  H       17.383    -111.080     110.688
  H       19.339    -113.462     110.461
  H       17.736    -114.456     108.934
  H       15.517    -113.712     110.507
  H       17.874    -115.408     111.411
  H       22.024    -107.883     114.820
  H       21.819    -109.573     115.262
  H       16.378    -115.253     112.354
  P       16.156    -113.316     107.230
  C       17.737    -112.031     105.618
  O       16.419    -112.209     106.107
  O       14.562    -113.341     107.388
  O       16.705    -114.685     106.941
  H       14.188    -114.058     106.842
  H       17.699    -111.744     104.566
  H       18.333    -112.946     105.715
  H       18.224    -111.236     106.195
  H       15.953    -118.452     114.275
  H       17.071    -117.273     113.632
  H       17.327    -118.975     113.329

 3  4  5  6  7  8  9  10  11  12  22  25  29  30  31  32 0
 6-311+G(2d,p)
 ****
 33  36  37 0
 6-311+G(2d,p)
 ****
 1  2  13  14  15  16  17  18  19  20  21  23  24  26 0
 3-21G
 ****
 27  28  34  35  38  39  40  41  42  43  44  45  46  47  48 0
 3-21G
 ****


