%nproc=1
%NoSave
%Mem=1900MB
#P OB98/GEN NMR

erre ene a

0 1
  C     -162.004     179.089    -128.559
  O     -161.803     180.472    -128.768
  H     -162.782     178.740    -129.242
  H     -162.332     178.913    -127.532
  H     -161.084     178.530    -128.757
  P     -160.545     181.150    -128.042
  C     -158.787     181.299    -129.951
  O     -159.759     181.980    -129.171
  C     -157.670     182.264    -130.349
  O     -156.507     181.485    -130.751
  C     -158.030     183.187    -131.522
  O     -157.416     184.460    -131.299
  C     -157.362     182.513    -132.706
  O     -157.094     183.390    -133.791
  C     -156.093     181.962    -132.047
  N     -155.473     180.894    -132.828
  C     -154.737     181.266    -133.948
  O     -154.500     182.425    -134.278
  N     -154.259     180.229    -134.710
  C     -154.460     178.901    -134.481
  O     -154.021     178.022    -135.212
  C     -155.252     178.571    -133.288
  C     -155.718     179.567    -132.530
  O     -159.581     179.906    -127.757
  O     -160.859     181.927    -126.807
  H     -159.779     179.513    -126.887
  H     -156.620     184.167    -133.429
  H     -153.724     180.483    -135.525
  H     -155.443     177.528    -133.081
  H     -156.325     179.360    -131.656
  H     -155.369     182.767    -131.884
  H     -157.994     181.699    -133.077
  H     -159.106     183.316    -131.675
  H     -157.376     182.846    -129.468
  H     -159.258     180.907    -130.858
  H     -158.381     180.463    -129.372
  P     -158.368     185.753    -131.331
  C     -159.674     185.150    -129.140
  O     -158.775     186.025    -129.804
  O     -159.691     185.146    -131.993
  O     -157.764     186.904    -132.060
  H     -159.859     184.225    -131.728
  H     -159.825     185.489    -128.136
  H     -159.264     184.162    -129.125
  H     -160.610     185.140    -129.658

 6  7  8  9  10  11  12  13  14  15  16  27  31  32  33  34  35 0
 6-311+G(2d,p)
 ****
 36  37 0
 6-311+G(2d,p)
 ****
 1  2  3  4  5  17  18  19  20  21  22  23  24  25 0
 3-21G
 ****
 26  28  29  30  38  39  40  41  42  43  44  45 0
 3-21G
 ****


