%nproc=1
%NoSave
%Mem=1900MB
#P OB98/GEN NMR

erre ene a

0 1
  C      240.554     -30.990     327.411
  O      239.356     -31.581     327.891
  P      239.487     -32.752     328.983
  C      238.324     -34.558     327.523
  O      239.514     -34.141     328.178
  C      238.553     -35.856     326.748
  O      237.282     -36.299     326.189
  C      239.550     -35.742     325.583
  O      240.246     -36.991     325.509
  C      238.629     -35.554     324.390
  O      239.244     -35.798     323.137
  C      237.496     -36.503     324.773
  N      233.741     -38.634     322.030
  C      234.784     -39.177     322.706
  N      235.739     -38.543     323.418
  C      235.538     -37.214     323.408
  C      234.534     -36.523     322.756
  C      233.605     -37.292     322.036
  N      232.545     -36.737     321.342
  N      234.664     -35.164     322.949
  C      235.731     -35.036     323.710
  N      236.281     -36.251     324.030
  O      238.048     -32.757     329.680
  O      240.594     -32.566     329.976
  H      238.593     -35.675     322.420
  H      238.122     -32.916     330.642
  H      234.866     -40.258     322.665
  H      236.152     -34.096     324.044
  H      237.773     -37.552     324.620
  H      238.275     -34.517     324.376
  H      240.277     -34.935     325.716
  H      238.884     -36.628     327.453
  H      238.016     -33.786     326.813
  H      232.060     -37.350     320.705
  H      232.571     -35.741     321.185
  H      237.523     -34.675     328.261
  P      241.837     -36.981     325.275
  C      241.383     -37.494     322.796
  O      241.989     -36.615     323.716
  O      242.149     -38.552     325.265
  O      242.636     -36.194     326.249
  H      241.556     -39.033     324.657
  H      241.481     -37.077     321.791
  H      240.318     -37.616     323.028
  H      241.885     -38.467     322.823
  H      240.316     -30.231     326.695
  H      241.161     -31.740     326.948
  H      241.089     -30.553     328.228

 3  4  5  6  7  8  9  10  11  12  22  25  29  30  31  32 0
 6-311+G(2d,p)
 ****
 33  36  37 0
 6-311+G(2d,p)
 ****
 1  2  13  14  15  16  17  18  19  20  21  23  24  26 0
 3-21G
 ****
 27  28  34  35  38  39  40  41  42  43  44  45  46  47  48 0
 3-21G
 ****


