%nproc=1
%NoSave
%Mem=1900MB
#P OB98/GEN NMR

erre ene a

0 1
  C      246.341      62.156     -96.243
  O      246.736      62.713     -97.481
  H      247.215      62.097     -95.587
  H      245.951      61.145     -96.396
  H      245.580      62.776     -95.758
  P      245.607      63.160     -98.529
  C      245.903      61.023     -99.943
  O      245.012      61.810     -99.166
  C      245.165      60.363    -101.114
  O      244.054      59.577    -100.577
  C      244.568      61.367    -102.127
  O      244.600      60.740    -103.416
  C      243.143      61.486    -101.614
  O      242.299      62.100    -102.551
  C      242.865      60.019    -101.266
  N      241.671      59.832    -100.447
  C      240.582      59.194    -101.039
  O      240.580      58.770    -102.192
  N      239.467      59.070    -100.251
  C      239.335      59.509     -98.964
  O      238.319      59.348     -98.297
  C      240.511      60.200     -98.403
  C      241.608      60.328     -99.157
  O      246.014      64.201     -99.518
  O      244.406      63.671     -97.594
  H      244.440      64.643     -97.524
  H      242.481      63.062    -102.597
  H      238.668      58.609    -100.663
  H      240.434      60.581     -97.394
  H      242.494      60.831     -98.780
  H      242.776      59.414    -102.175
  H      243.117      62.108    -100.711
  H      245.116      62.313    -102.161
  H      245.843      59.655    -101.607
  H      246.334      60.252     -99.293
  H      246.712      61.660    -100.323
  P      245.567      61.223    -104.608
  C      243.755      62.616    -105.801
  O      245.033      62.623    -105.188
  O      245.777      60.187    -105.666
  O      246.958      61.602    -103.905
  H      247.695      61.360    -104.500
  H      243.518      63.602    -106.143
  H      243.020      62.298    -105.091
  H      243.762      61.942    -106.632

 6  7  8  9  10  11  12  13  14  15  16  27  31  32  33  34  35 0
 6-311+G(2d,p)
 ****
 36  37 0
 6-311+G(2d,p)
 ****
 1  2  3  4  5  17  18  19  20  21  22  23  24  25 0
 3-21G
 ****
 26  28  29  30  38  39  40  41  42  43  44  45 0
 3-21G
 ****


