%nproc=1
%NoSave
%Mem=1900MB
#P OB98/GEN NMR

erre ene a

0 1
  C     -187.702    -895.090     200.769
  O     -188.037    -895.040     199.397
  P     -187.675    -893.830     198.412
  C     -186.562    -895.500     196.729
  O     -186.464    -894.290     197.480
  C     -185.535    -895.570     195.571
  O     -185.639    -894.380     194.763
  C     -184.112    -895.630     196.093
  O     -183.550    -896.860     196.536
  C     -183.285    -894.890     195.070
  O     -182.694    -895.770     194.117
  C     -184.319    -893.970     194.392
  N     -182.767    -889.340     192.824
  C     -182.742    -890.550     192.138
  N     -182.197    -890.540     190.914
  N     -183.213    -891.660     192.641
  C     -183.644    -891.550     193.923
  C     -183.704    -890.420     194.701
  C     -183.262    -889.170     194.123
  O     -183.265    -888.080     194.680
  N     -184.190    -890.690     195.963
  C     -184.412    -892.000     195.937
  N     -184.101    -892.570     194.703
  O     -187.553    -892.490     199.057
  O     -188.940    -893.780     197.393
  H     -183.335    -895.910     193.406
  H     -189.052    -892.820     197.155
  H     -182.440    -888.500     192.389
  H     -184.795    -892.580     196.771
  H     -184.250    -894.050     193.304
  H     -182.449    -894.350     195.545
  H     -181.724    -889.750     190.522
  H     -184.085    -894.980     197.016
  H     -181.964    -891.430     190.494
  H     -185.785    -896.420     194.903
  H     -187.583    -895.560     196.341
  H     -186.428    -896.370     197.403
  P     -183.211    -897.280     198.058
  C     -184.785    -899.280     198.179
  O     -184.509    -898.000     198.649
  O     -183.152    -895.880     198.834
  O     -181.923    -898.030     198.219
  H     -182.709    -896.000     199.702
  H     -185.832    -899.530     198.426
  H     -184.137    -900.000     198.669
  H     -184.659    -899.340     197.099
  H     -188.061    -896.006     201.191
  H     -188.153    -894.263     201.277
  H     -186.639    -895.040     200.879

 3  4  5  6  7  8  9  10  11  12  23  26  30  31 0
 6-311+G(2d,p)
 ****
 33  35  36  37  38 0
 6-311+G(2d,p)
 ****
 1  2  13  14  15  16  17  18  19  20  21  22  24  25 0
 3-21G
 ****
 27  28  29  32  34  39  40  41  42  43  44  45  46  47  48  49 0
 3-21G
 ****


