%nproc=1
%NoSave
%Mem=1900MB
#P OB98/GEN NMR

erre ene a

0 1
  C        7.024     -13.762       5.827
  O        8.070     -12.844       6.189
  P        7.875     -11.280       5.881
  C        6.678      -9.901       7.745
  O        7.894     -10.433       7.244
  C        6.821      -9.474       9.214
  O        6.937     -10.648      10.069
  C        8.040      -8.587       9.502
  O        7.670      -7.692      10.560
  C        9.063      -9.591      10.002
  O       10.115      -8.995      10.747
  C        8.159     -10.515      10.823
  N        8.741     -11.827      11.108
  C        8.784     -12.246      12.434
  O        8.423     -11.565      13.390
  N        9.299     -13.500      12.644
  C        9.800     -14.337      11.690
  O       10.275     -15.437      11.947
  C        9.754     -13.830      10.313
  C        9.236     -12.620      10.091
  O        6.329     -11.212       5.463
  O        8.729     -10.731       4.784
  H        9.706      -8.467      11.456
  H        6.229     -10.668       4.660
  H        9.325     -13.826      13.597
  H       10.136     -14.465       9.525
  H        9.181     -12.231       9.079
  H        7.894     -10.024      11.766
  H        9.511     -10.108       9.147
  H        8.377      -8.023       8.628
  H        5.897      -8.961       9.509
  H        5.895     -10.661       7.671
  H        6.384      -9.044       7.131
  P        7.658      -6.114      10.257
  C        5.045      -6.233      10.308
  O        6.222      -5.558      10.695
  O        7.572      -6.131       8.655
  O        8.847      -5.375      10.775
  H        6.916      -6.764       8.322
  H        5.162      -7.317      10.385
  H        4.791      -5.966       9.280
  H        4.229      -5.922      10.965
  H        7.312     -14.756       6.099
  H        6.858     -13.715       4.771
  H        6.124     -13.498       6.341

 3  4  5  6  7  8  9  10  11  12  13  23  28  29  30  31  32 0
 6-311+G(2d,p)
 ****
 33  34 0
 6-311+G(2d,p)
 ****
 1  2  14  15  16  17  18  19  20  21  22  24  25  26 0
 3-21G
 ****
 27  35  36  37  38  39  40  41  42  43  44  45 0
 3-21G
 ****


