%nproc=1
%NoSave
%Mem=1900MB
#P OB98/GEN NMR

erre ene a

0 1
  C     -275.585     626.401     202.264
  O     -274.193     626.399     202.550
  P     -273.489     625.135     203.263
  C     -273.699     626.090     205.651
  O     -272.835     625.731     204.599
  C     -272.895     626.670     206.810
  O     -271.849     625.769     207.198
  C     -272.198     628.007     206.495
  O     -273.138     629.079     206.494
  C     -271.147     628.047     207.587
  O     -271.730     628.483     208.828
  C     -270.732     626.566     207.697
  N     -269.505     626.252     206.985
  C     -268.323     626.444     207.701
  O     -268.321     626.844     208.856
  N     -267.121     626.149     207.059
  C     -267.125     625.718     205.841
  N     -265.928     625.369     205.298
  C     -268.360     625.546     205.039
  C     -269.502     625.835     205.672
  O     -272.573     624.359     202.397
  O     -274.722     624.276     203.836
  H     -271.818     629.456     208.767
  H     -275.084     623.624     203.191
  H     -268.309     625.200     204.031
  H     -270.443     625.713     205.169
  H     -270.632     626.282     208.755
  H     -270.302     628.699     207.354
  H     -271.722     627.943     205.515
  H     -273.583     626.797     207.675
  H     -265.139     625.339     205.933
  H     -274.214     625.187     206.011
  H     -265.863     624.761     204.489
  H     -274.452     626.805     205.291
  P     -273.192     630.026     205.191
  C     -271.192     631.494     205.996
  O     -272.566     631.436     205.654
  O     -274.749     630.301     205.017
  O     -272.563     629.421     203.981
  H     -275.117     629.740     204.297
  H     -270.896     632.540     206.042
  H     -270.597     631.002     205.221
  H     -271.020     631.013     206.961
  H     -275.851     627.325     201.794
  H     -276.136     626.292     203.175
  H     -275.816     625.588     201.608

 3  4  5  6  7  8  9  10  11  12  13  23  27  28  29  30  32 0
 6-311+G(2d,p)
 ****
 34  35 0
 6-311+G(2d,p)
 ****
 1  2  14  15  16  17  18  19  20  21  22  24  25  26 0
 3-21G
 ****
 31  33  36  37  38  39  40  41  42  43  44  45  46 0
 3-21G
 ****


