%nproc=1
%NoSave
%Mem=1900MB
#P OB98/GEN NMR

erre ene a

0 1
  C      570.439     226.420     827.009
  O      569.299     226.894     827.697
  P      569.462     227.236     829.261
  C      567.679     225.398     829.770
  O      568.967     225.949     830.070
  C      566.960     225.015     831.063
  O      567.862     224.322     831.943
  C      566.423     226.193     831.860
  O      565.254     226.726     831.270
  C      566.216     225.538     833.228
  O      564.995     224.771     833.211
  C      567.431     224.586     833.311
  N      570.612     223.920     837.275
  C      569.582     223.184     836.802
  N      568.772     223.424     835.760
  C      569.115     224.596     835.169
  C      570.110     225.469     835.542
  C      570.885     225.101     836.647
  N      571.925     225.862     837.129
  N      570.138     226.572     834.713
  C      569.175     226.347     833.840
  N      568.529     225.156     834.061
  O      568.307     228.309     829.529
  O      570.809     227.753     829.644
  H      564.860     224.412     834.114
  H      568.589     228.960     830.199
  H      569.394     222.249     837.342
  H      568.908     227.018     833.031
  H      567.187     223.622     833.771
  H      566.154     226.246     834.042
  H      567.186     226.978     831.944
  H      566.146     224.330     830.796
  H      567.808     224.501     829.152
  H      572.332     225.596     838.010
  H      572.036     226.802     836.757
  H      567.109     226.139     829.198
  P      565.093     228.322     831.239
  C      563.445     227.862     833.143
  O      564.500     228.689     832.689
  O      563.826     228.505     830.279
  O      566.338     229.063     830.841
  H      563.090     227.930     830.530
  H      563.180     228.183     834.153
  H      563.763     226.811     833.177
  H      562.573     227.966     832.495
  H      570.187     226.235     825.986
  H      570.777     225.512     827.463
  H      571.216     227.154     827.058

 3  4  5  6  7  8  9  10  11  12  22  25  29  30  31  32 0
 6-311+G(2d,p)
 ****
 33  36  37 0
 6-311+G(2d,p)
 ****
 1  2  13  14  15  16  17  18  19  20  21  23  24  26 0
 3-21G
 ****
 27  28  34  35  38  39  40  41  42  43  44  45  46  47  48 0
 3-21G
 ****


