%nproc=1
%NoSave
%Mem=1900MB
#P OB98/GEN NMR

erre ene a

0 1
  C     -475.818    -228.323     -67.880
  O     -476.172    -229.691     -67.893
  H     -476.047    -227.913     -66.892
  H     -476.399    -227.774     -68.626
  H     -474.749    -228.200     -68.071
  P     -475.939    -230.531     -69.239
  C     -478.403    -230.635     -70.034
  O     -477.124    -230.047     -70.213
  C     -479.025    -230.972     -71.388
  O     -479.475    -229.779     -72.070
  C     -478.078    -231.644     -72.378
  O     -477.798    -232.999     -72.072
  C     -478.889    -231.494     -73.655
  O     -479.961    -232.453     -73.661
  C     -479.420    -230.051     -73.499
  N     -478.581    -229.063     -74.177
  C     -479.141    -228.425     -75.289
  O     -480.279    -228.699     -75.665
  N     -478.384    -227.506     -75.977
  C     -477.167    -227.265     -75.601
  N     -476.462    -226.348     -76.320
  C     -476.531    -227.931     -74.447
  C     -477.284    -228.805     -73.788
  O     -475.806    -232.011     -69.076
  O     -474.663    -229.848     -69.922
  H     -480.367    -232.419     -74.548
  H     -474.469    -230.338     -70.758
  H     -475.500    -227.716     -74.195
  H     -476.884    -229.341     -72.933
  H     -480.446    -229.969     -73.884
  H     -478.300    -231.662     -74.560
  H     -477.151    -231.065     -72.486
  H     -479.912    -231.590     -71.198
  H     -476.922    -225.911     -77.106
  H     -479.030    -229.930     -69.479
  H     -475.480    -226.157     -76.148
  H     -478.312    -231.562     -69.457
  P     -476.246    -233.411     -71.953
  C     -476.712    -235.022     -73.959
  O     -475.850    -234.069     -73.361
  O     -476.279    -234.648     -70.940
  O     -475.329    -232.315     -71.503
  H     -476.047    -234.357     -70.035
  H     -476.291    -235.351     -74.886
  H     -477.667    -234.575     -74.139
  H     -476.828    -235.859     -73.303

 6  7  8  9  10  11  12  13  14  15  16  26  30  31  32  33  35 0
 6-311+G(2d,p)
 ****
 37  38 0
 6-311+G(2d,p)
 ****
 1  2  3  4  5  17  18  19  20  21  22  23  24  25 0
 3-21G
 ****
 27  28  29  34  36  39  40  41  42  43  44  45  46 0
 3-21G
 ****


