%nproc=1
%NoSave
%Mem=1900MB
#P OB98/GEN NMR

erre ene a

0 1
  C     -118.426     328.016     -38.987
  O     -117.906     326.951     -39.770
  P     -118.855     326.106     -40.740
  C     -120.020     324.739     -38.823
  O     -119.246     324.747     -40.002
  C     -120.600     323.335     -38.619
  O     -121.621     323.070     -39.605
  C     -119.528     322.259     -38.750
  O     -119.005     321.908     -37.476
  C     -120.277     321.123     -39.424
  O     -121.034     320.374     -38.455
  C     -121.229     321.894     -40.365
  N     -120.702     322.351     -41.670
  C     -120.345     321.409     -42.633
  O     -120.466     320.198     -42.482
  N     -119.807     321.917     -43.788
  C     -119.643     323.243     -44.075
  O     -118.949     323.673     -44.990
  C     -120.285     324.176     -43.144
  C     -120.756     323.699     -41.994
  O     -117.856     325.631     -41.894
  O     -120.035     326.844     -41.286
  H     -121.757     320.953     -38.144
  H     -117.936     326.207     -42.676
  H     -119.415     321.239     -44.432
  H     -120.304     325.228     -43.401
  H     -121.200     324.377     -41.272
  H     -122.136     321.313     -40.570
  H     -119.589     320.415     -39.883
  H     -118.729     322.596     -39.421
  H     -121.072     323.284     -37.628
  H     -120.823     325.478     -38.897
  H     -119.398     325.017     -37.966
  P     -117.435     322.037     -37.204
  C     -116.631     319.816     -38.192
  O     -116.916     320.535     -37.011
  O     -117.043     322.995     -36.128
  O     -116.850     322.476     -38.633
  H     -116.720     323.447     -38.655
  H     -116.126     318.884     -37.924
  H     -115.979     320.398     -38.851
  H     -117.562     319.573     -38.712
  H     -117.638     328.452     -38.410
  H     -119.183     327.640     -38.331
  H     -118.849     328.758     -39.631

 3  4  5  6  7  8  9  10  11  12  13  23  28  29  30  31  32 0
 6-311+G(2d,p)
 ****
 33  34 0
 6-311+G(2d,p)
 ****
 1  2  14  15  16  17  18  19  20  21  22  24  25  26  27 0
 3-21G
 ****
 35  36  37  38  39  40  41  42  43  44  45 0
 3-21G
 ****


