%nproc=1
%NoSave
%Mem=1900MB
#P OB98/GEN NMR

erre ene a

0 1
  C     1063.906     608.695    -153.481
  O     1062.995     607.658    -153.166
  H     1064.745     608.263    -154.027
  H     1064.292     609.153    -152.563
  H     1063.431     609.454    -154.112
  P     1061.610     608.045    -152.437
  C     1060.652     606.488    -150.637
  O     1060.917     606.656    -152.014
  C     1060.189     605.064    -150.347
  O     1058.968     604.808    -151.092
  C     1061.201     603.980    -150.754
  O     1061.163     602.936    -149.773
  C     1060.686     603.469    -152.074
  O     1061.085     602.126    -152.334
  C     1059.171     603.624    -151.896
  N     1057.406     601.041    -155.863
  C     1057.969     600.592    -154.687
  N     1058.119     599.251    -154.560
  N     1058.366     601.377    -153.727
  C     1058.150     602.691    -153.986
  C     1057.597     603.256    -155.109
  C     1057.182     602.379    -156.171
  O     1056.685     602.716    -157.239
  N     1057.567     604.637    -155.011
  C     1058.105     604.884    -153.829
  N     1058.489     603.754    -153.170
  O     1060.723     608.973    -153.201
  O     1062.072     608.669    -151.038
  H     1062.063     602.116    -152.376
  H     1062.042     609.649    -151.076
  H     1057.122     600.380    -156.571
  H     1058.259     605.884    -153.413
  H     1058.716     602.769    -151.369
  H     1061.054     604.100    -152.895
  H     1057.818     598.581    -155.253
  H     1062.229     604.371    -150.831
  H     1058.511     598.896    -153.684
  H     1059.932     604.977    -149.280
  H     1059.865     607.193    -150.339
  H     1061.562     606.704    -150.049
  P     1062.399     602.760    -148.770
  C     1061.656     600.298    -148.521
  O     1062.116     601.473    -147.849
  O     1062.806     603.997    -148.034
  O     1063.583     602.239    -149.732
  H     1064.430     602.545    -149.367
  H     1061.504     599.515    -147.807
  H     1062.386     599.989    -149.239
  H     1060.733     600.510    -149.019

 6  7  8  9  10  11  12  13  14  15  26  29  33  34 0
 6-311+G(2d,p)
 ****
 36  38  39  40  41 0
 6-311+G(2d,p)
 ****
 1  2  3  4  5  16  17  18  19  20  21  22  23  24  25 0
 3-21G
 ****
 27  28  30  31  32  35  37  42  43  44  45  46  47 0
 3-21G
 ****
 48  49 0
 3-21G
 ****


