%nproc=1
%NoSave
%Mem=1900MB
#P OB98/GEN NMR

erre ene a

0 1
  C      432.543      49.507    1279.472
  O      433.721      48.878    1279.941
  P      435.034      48.954    1279.020
  C      436.106      50.954    1280.365
  O      435.563      50.467    1279.145
  C      437.572      51.345    1280.166
  O      437.678      52.425    1279.217
  C      438.269      51.834    1281.432
  O      438.615      50.766    1282.298
  C      439.457      52.590    1280.839
  O      440.502      51.679    1280.469
  C      438.828      53.207    1279.571
  N      438.474      54.628    1279.736
  C      438.353      55.364    1278.565
  O      438.528      54.888    1277.426
  N      438.046      56.690    1278.722
  C      437.923      57.357    1279.921
  O      437.689      58.545    1279.998
  C      438.088      56.524    1281.113
  C      438.362      55.218    1280.980
  O      434.380      48.878    1277.552
  O      436.039      47.886    1279.319
  H      433.463      49.224    1277.551
  H      441.187      52.202    1280.010
  H      437.929      57.248    1277.891
  H      438.004      56.999    1282.077
  H      438.509      54.610    1281.850
  H      439.525      53.137    1278.722
  H      439.881      53.320    1281.529
  H      437.611      52.546    1281.963
  H      438.117      50.475    1279.749
  H      436.037      50.173    1281.127
  H      435.524      51.820    1280.687
  P      438.131      50.908    1283.831
  C      436.475      48.884    1283.710
  O      436.648      50.264    1283.895
  O      437.903      52.485    1283.945
  O      439.112      50.340    1284.818
  H      437.451      52.855    1283.163
  H      435.502      48.614    1284.124
  H      437.259      48.322    1284.219
  H      436.479      48.644    1282.644
  H      431.758      49.373    1280.187
  H      432.253      49.071    1278.539
  H      432.727      50.552    1279.336

 3  4  5  6  7  8  9  10  11  12  13  24  28  29  30  31  32 0
 6-311+G(2d,p)
 ****
 33  34 0
 6-311+G(2d,p)
 ****
 1  2  14  15  16  17  18  19  20  21  22  23  25  26  27 0
 3-21G
 ****
 35  36  37  38  39  40  41  42  43  44  45 0
 3-21G
 ****


