%nproc=1
%NoSave
%Mem=1900MB
#P OB98/GEN NMR

erre ene a

0 1
  C      -80.403     131.383    -312.398
  O      -81.041     131.152    -313.657
  P      -80.135     131.399    -314.960
  C      -81.077     133.790    -315.316
  O      -79.920     132.989    -315.112
  C      -80.946     134.624    -316.598
  O      -80.050     135.756    -316.389
  C      -80.399     133.827    -317.797
  O      -81.048     134.343    -318.966
  C      -78.924     134.212    -317.781
  O      -78.254     133.913    -318.999
  C      -79.052     135.696    -317.429
  N      -75.293     138.910    -318.706
  C      -76.404     138.512    -319.369
  N      -77.362     137.647    -318.958
  C      -77.077     137.190    -317.729
  C      -75.987     137.503    -316.932
  C      -75.064     138.411    -317.466
  N      -73.919     138.810    -316.808
  N      -76.043     136.804    -315.725
  C      -77.108     136.026    -315.844
  N      -77.808     136.288    -316.993
  O      -81.109     131.026    -316.172
  O      -78.869     130.600    -314.971
  H      -77.319     134.197    -318.941
  H      -80.924     130.122    -316.494
  H      -76.543     138.941    -320.360
  H      -77.418     135.275    -315.132
  H      -79.413     136.289    -318.277
  H      -78.411     133.666    -316.986
  H      -80.577     132.750    -317.726
  H      -81.937     135.033    -316.845
  H      -81.222     134.468    -314.470
  H      -73.314     139.470    -317.279
  H      -73.705     138.452    -315.893
  H      -81.965     133.141    -315.348
  P      -82.381     133.604    -319.493
  C      -81.267     132.795    -321.663
  O      -81.836     132.413    -320.428
  O      -82.878     134.663    -320.593
  O      -83.405     133.268    -318.455
  H      -82.157     134.910    -321.198
  H      -80.876     131.906    -322.158
  H      -80.454     133.508    -321.501
  H      -82.038     133.250    -322.310
  H      -81.096     131.189    -311.606
  H      -80.077     132.401    -312.345
  H      -79.559     130.732    -312.301

 3  4  5  6  7  8  9  10  11  12  22  25  29  30  31  32 0
 6-311+G(2d,p)
 ****
 33  36  37 0
 6-311+G(2d,p)
 ****
 1  2  13  14  15  16  17  18  19  20  21  23  24  26 0
 3-21G
 ****
 27  28  34  35  38  39  40  41  42  43  44  45  46  47  48 0
 3-21G
 ****


