%nproc=1
%NoSave
%Mem=1900MB
#P OB98/GEN NMR

erre ene a

0 1
  C     -171.210     -24.404    -190.565
  O     -170.635     -23.245    -189.996
  H     -171.106     -25.229    -189.857
  H     -170.687     -24.663    -191.488
  H     -172.271     -24.243    -190.768
  P     -170.760     -21.885    -190.840
  C     -168.350     -21.651    -191.768
  O     -169.305     -21.202    -190.817
  C     -167.045     -22.046    -191.077
  O     -167.207     -23.370    -190.485
  C     -165.829     -22.109    -192.014
  O     -164.678     -21.677    -191.276
  C     -165.686     -23.597    -192.286
  O     -164.374     -23.954    -192.715
  C     -166.085     -24.159    -190.923
  N     -164.143     -28.795    -190.655
  C     -163.545     -27.559    -190.490
  N     -162.223     -27.557    -190.210
  N     -164.186     -26.426    -190.591
  C     -165.509     -26.580    -190.840
  C     -166.220     -27.740    -191.030
  C     -165.491     -28.990    -190.942
  O     -165.962     -30.112    -191.098
  N     -167.541     -27.474    -191.292
  C     -167.626     -26.157    -191.259
  N     -166.420     -25.569    -190.990
  O     -171.630     -20.953    -189.871
  O     -171.379     -22.024    -192.189
  H     -164.353     -24.925    -192.841
  H     -172.576     -21.023    -190.097
  H     -163.601     -29.637    -190.579
  H     -168.528     -25.582    -191.426
  H     -165.284     -24.059    -190.180
  H     -166.398     -23.909    -193.062
  H     -161.676     -28.390    -190.072
  H     -165.929     -21.512    -192.926
  H     -161.775     -26.663    -190.043
  H     -166.866     -21.351    -190.248
  H     -168.148     -20.842    -192.479
  H     -168.760     -22.510    -192.312
  P     -163.754     -20.540    -191.917
  C     -161.615     -21.114    -190.554
  O     -162.621     -20.157    -190.850
  O     -164.708     -19.252    -191.895
  O     -163.272     -20.845    -193.298
  H     -164.459     -18.643    -192.616
  H     -160.940     -20.709    -189.829
  H     -161.077     -21.354    -191.447
  H     -162.070     -22.000    -190.162

 6  7  8  9  10  11  12  13  14  15  26  29  33  34 0
 6-311+G(2d,p)
 ****
 36  38  39  40  41 0
 6-311+G(2d,p)
 ****
 1  2  3  4  5  16  17  18  19  20  21  22  23  24  25 0
 3-21G
 ****
 27  28  30  31  32  35  37  42  43  44  45  46  47 0
 3-21G
 ****
 48  49 0
 3-21G
 ****


