%nproc=1
%NoSave
%Mem=1900MB
#P OB98/GEN NMR

erre ene a

0 1
  C      722.981    -263.308    -516.075
  O      723.027    -261.962    -515.637
  H      722.555    -263.342    -517.075
  H      722.375    -263.914    -515.405
  H      724.000    -263.712    -516.124
  P      723.387    -261.674    -514.100
  C      721.310    -260.825    -512.810
  O      722.028    -261.968    -513.281
  C      720.749    -260.009    -513.971
  O      719.859    -260.824    -514.772
  C      719.900    -258.814    -513.532
  O      720.637    -257.783    -512.931
  C      719.070    -258.528    -514.786
  O      719.738    -257.680    -515.721
  C      718.909    -259.948    -515.392
  N      717.543    -260.437    -515.261
  C      716.583    -259.768    -516.004
  O      716.826    -258.814    -516.738
  N      715.291    -260.232    -515.870
  C      714.885    -261.228    -515.034
  O      713.718    -261.555    -514.924
  C      715.948    -261.871    -514.237
  C      717.206    -261.467    -514.381
  O      723.995    -260.328    -513.810
  O      724.323    -262.909    -513.694
  H      719.940    -256.837    -515.255
  H      724.824    -262.712    -512.858
  H      714.580    -259.767    -516.414
  H      715.655    -262.667    -513.563
  H      718.008    -261.914    -513.810
  H      719.154    -259.923    -516.468
  H      718.120    -258.051    -514.529
  H      719.193    -259.176    -512.775
  H      721.588    -259.685    -514.617
  H      722.022    -260.198    -512.241
  H      720.511    -261.147    -512.137
  P      719.966    -256.632    -512.030
  C      719.722    -254.342    -513.255
  O      719.163    -255.635    -513.000
  O      720.813    -256.061    -510.937
  O      718.763    -257.454    -511.316
  H      718.657    -257.098    -510.425
  H      719.077    -253.798    -513.914
  H      720.684    -254.453    -513.709
  H      719.822    -253.808    -512.333

 6  7  8  9  10  11  12  13  14  15  16  26  31  32  33  34  35 0
 6-311+G(2d,p)
 ****
 36  37 0
 6-311+G(2d,p)
 ****
 1  2  3  4  5  17  18  19  20  21  22  23  24  25 0
 3-21G
 ****
 27  28  29  30  38  39  40  41  42  43  44  45 0
 3-21G
 ****


