%nproc=1
%NoSave
%Mem=1900MB
#P OB98/GEN NMR

erre ene a

0 1
  C       80.672    -340.601    -173.282
  O       79.944    -339.428    -172.952
  P       79.570    -339.187    -171.411
  C       81.613    -337.619    -171.013
  O       80.936    -338.812    -170.656
  C       81.230    -336.476    -170.066
  O       81.304    -336.970    -168.700
  C       82.134    -335.238    -170.146
  O       81.312    -334.102    -169.860
  C       83.118    -335.458    -169.011
  O       83.740    -334.248    -168.582
  C       82.214    -336.114    -167.974
  N       84.927    -335.941    -163.704
  C       84.391    -334.907    -164.457
  N       84.554    -333.658    -163.965
  N       83.754    -335.082    -165.585
  C       83.654    -336.391    -165.940
  C       84.172    -337.491    -165.307
  C       84.844    -337.287    -164.039
  O       85.254    -338.175    -163.299
  N       83.945    -338.637    -166.020
  C       83.217    -338.241    -167.042
  N       82.977    -336.890    -167.017
  O       79.237    -340.659    -170.886
  O       78.449    -338.223    -171.159
  H       84.046    -334.384    -167.662
  H       78.282    -340.848    -170.939
  H       85.390    -335.743    -162.832
  H       82.835    -338.874    -167.827
  H       81.618    -335.381    -167.410
  H       83.909    -336.145    -169.338
  H       85.009    -333.455    -163.084
  H       82.622    -335.119    -171.116
  H       84.144    -332.891    -164.476
  H       80.188    -336.202    -170.256
  H       81.318    -337.333    -172.031
  H       82.694    -337.788    -170.999
  P       81.682    -332.708    -170.566
  C       79.976    -332.843    -172.513
  O       81.335    -332.853    -172.123
  O       83.287    -332.718    -170.544
  O       81.147    -331.496    -169.877
  H       83.617    -331.804    -170.462
  H       79.910    -332.547    -173.565
  H       79.388    -332.147    -171.914
  H       79.560    -333.850    -172.406
  H       80.848    -340.627    -174.337
  H       80.109    -341.464    -172.993
  H       81.609    -340.597    -172.765

 3  4  5  6  7  8  9  10  11  12  23  26  30  31 0
 6-311+G(2d,p)
 ****
 33  35  36  37  38 0
 6-311+G(2d,p)
 ****
 1  2  13  14  15  16  17  18  19  20  21  22  24  25 0
 3-21G
 ****
 27  28  29  32  34  39  40  41  42  43  44  45  46  47  48  49 0
 3-21G
 ****


