%nproc=1
%NoSave
%Mem=1900MB
#P OB98/GEN NMR

erre ene a

0 1
  C      -27.394     212.050    -137.134
  O      -28.084     212.633    -138.222
  H      -28.032     212.098    -136.248
  H      -26.477     212.613    -136.937
  H      -27.154     211.004    -137.340
  P      -27.475     212.377    -139.686
  C      -26.747     214.868    -139.640
  O      -26.382     213.527    -139.931
  C      -27.191     215.583    -140.913
  O      -27.772     216.865    -140.594
  C      -26.064     215.857    -141.907
  O      -25.800     214.724    -142.721
  C      -26.676     216.985    -142.722
  O      -27.642     216.444    -143.648
  C      -27.395     217.805    -141.641
  N      -26.124     222.708    -141.919
  C      -26.936     221.956    -142.742
  N      -27.482     222.600    -143.797
  N      -27.191     220.686    -142.559
  C      -26.557     220.167    -141.477
  C      -25.722     220.810    -140.589
  C      -25.465     222.215    -140.799
  O      -24.760     222.929    -140.089
  N      -25.267     219.954    -139.620
  C      -25.806     218.794    -139.933
  N      -26.596     218.869    -141.054
  O      -28.688     212.791    -140.649
  O      -27.023     210.981    -139.951
  H      -27.925     217.177    -144.225
  H      -29.122     211.980    -140.976
  H      -25.954     223.680    -142.112
  H      -25.665     217.876    -139.379
  H      -28.317     218.269    -142.013
  H      -25.937     217.527    -143.312
  H      -27.313     223.570    -144.012
  H      -25.159     216.217    -141.403
  H      -28.087     222.068    -144.414
  H      -27.979     214.976    -141.380
  H      -25.885     215.388    -139.211
  H      -27.562     214.863    -138.910
  P      -24.286     214.457    -143.182
  C      -24.895     214.917    -145.660
  O      -24.067     215.257    -144.556
  O      -24.324     212.925    -143.643
  O      -23.254     214.685    -142.132
  H      -23.807     212.378    -143.020
  H      -24.637     215.527    -146.500
  H      -25.920     215.081    -145.401
  H      -24.751     213.887    -145.910

 6  7  8  9  10  11  12  13  14  15  26  29  33  34 0
 6-311+G(2d,p)
 ****
 36  38  39  40  41 0
 6-311+G(2d,p)
 ****
 1  2  3  4  5  16  17  18  19  20  21  22  23  24  25 0
 3-21G
 ****
 27  28  30  31  32  35  37  42  43  44  45  46  47 0
 3-21G
 ****
 48  49 0
 3-21G
 ****


