%nproc=1
%NoSave
%Mem=1900MB
#P OB98/GEN NMR

erre ene a

0 1
  C      -34.698     102.221    -398.523
  O      -35.238     101.182    -399.322
  P      -35.169     101.249    -400.927
  C      -34.257      98.936    -401.626
  O      -35.414      99.744    -401.415
  C      -34.593      97.461    -401.353
  O      -34.705      97.251    -399.927
  C      -35.924      96.995    -401.947
  O      -35.801      96.781    -403.344
  C      -36.193      95.753    -401.103
  O      -35.413      94.639    -401.591
  C      -35.667      96.186    -399.713
  N      -36.744      96.618    -398.820
  C      -37.709      95.650    -398.513
  O      -37.642      94.510    -398.964
  N      -38.720      95.999    -397.646
  C      -38.786      97.212    -397.163
  N      -39.771      97.469    -396.264
  C      -37.810      98.255    -397.505
  C      -36.826      97.905    -398.326
  O      -33.935     101.896    -401.478
  O      -36.526     101.980    -401.353
  H      -35.662      93.869    -401.053
  H      -36.455     102.969    -401.391
  H      -37.906      99.254    -397.082
  H      -36.063      98.610    -398.606
  H      -35.113      95.367    -399.246
  H      -37.240      95.454    -401.102
  H      -36.703      97.745    -401.767
  H      -33.767      96.845    -401.725
  H      -40.307      96.674    -395.926
  H      -33.475      99.249    -400.939
  H      -39.725      98.260    -395.630
  H      -33.904      99.064    -402.652
  P      -37.153      96.733    -404.209
  C      -35.912      96.978    -406.488
  O      -36.722      96.166    -405.658
  O      -37.481      98.282    -404.470
  O      -38.285      96.015    -403.547
  H      -38.182      98.584    -403.858
  H      -35.527      96.365    -407.301
  H      -35.079      97.388    -405.915
  H      -36.516      97.797    -406.905
  H      -34.844     101.988    -397.489
  H      -35.191     103.142    -398.754
  H      -33.651     102.317    -398.723

 3  4  5  6  7  8  9  10  11  12  13  23  27  28  29  30  32 0
 6-311+G(2d,p)
 ****
 34  35 0
 6-311+G(2d,p)
 ****
 1  2  14  15  16  17  18  19  20  21  22  24  25  26 0
 3-21G
 ****
 31  33  36  37  38  39  40  41  42  43  44  45  46 0
 3-21G
 ****


