%nproc=1
%NoSave
%Mem=1900MB
#P OB98/GEN NMR

erre ene a

0 1
  C      -59.009    -888.910      70.653
  O      -59.671    -890.110      70.991
  P      -59.038    -891.130      72.054
  C      -60.801    -892.830      71.276
  O      -59.430    -892.600      71.548
  C      -60.971    -893.620      69.973
  O      -60.545    -892.830      68.835
  C      -60.125    -894.890      69.900
  O      -60.427    -895.940      70.800
  C      -60.177    -895.200      68.423
  O      -61.399    -895.870      68.083
  C      -60.167    -893.770      67.786
  N      -58.871    -893.450      67.195
  C      -58.539    -894.120      66.024
  O      -59.279    -894.950      65.493
  N      -57.324    -893.840      65.502
  C      -56.375    -893.000      66.037
  O      -55.270    -892.840      65.530
  C      -56.760    -892.340      67.288
  C      -57.978    -892.580      67.803
  O      -59.363    -890.850      73.473
  O      -57.463    -891.060      71.722
  H      -62.141    -895.280      68.313
  H      -57.224    -891.320      70.815
  H      -57.063    -894.330      64.652
  H      -56.050    -891.660      67.735
  H      -58.291    -892.110      68.731
  H      -60.943    -893.700      67.001
  H      -59.363    -895.850      68.102
  H      -59.080    -894.620      70.119
  H      -62.030    -893.840      69.835
  H      -61.314    -891.870      71.170
  H      -61.261    -893.370      72.126
  P      -59.346    -896.630      71.743
  C      -60.512    -898.950      71.647
  O      -59.335    -898.200      71.427
  O      -59.344    -896.230      73.190
  O      -57.971    -896.150      71.076
  H      -57.281    -896.070      71.767
  H      -60.310    -900.000      71.417
  H      -61.315    -898.600      71.008
  H      -60.809    -898.880      72.696
  H      -59.590    -888.373      69.933
  H      -58.049    -889.137      70.239
  H      -58.887    -888.311      71.531

 3  4  5  6  7  8  9  10  11  12  13  23  28  29  30  31  32 0
 6-311+G(2d,p)
 ****
 33  34 0
 6-311+G(2d,p)
 ****
 1  2  14  15  16  17  18  19  20  21  22  24  25  26  27 0
 3-21G
 ****
 35  36  37  38  39  40  41  42  43  44  45 0
 3-21G
 ****


