%nproc=1
%NoSave
%Mem=1900MB
#P OB98/GEN NMR

erre ene a

0 1
  C     -253.688      71.146     -32.273
  O     -253.021      72.300     -31.795
  H     -254.436      71.454     -33.007
  H     -254.191      70.620     -31.457
  H     -252.974      70.476     -32.761
  P     -252.054      72.141     -30.522
  C     -252.541      74.577     -29.810
  O     -252.593      73.201     -29.439
  C     -253.515      75.409     -28.971
  O     -254.872      74.998     -29.233
  C     -253.330      75.237     -27.471
  O     -252.133      75.795     -26.968
  C     -254.669      75.709     -26.919
  O     -254.736      77.118     -26.723
  C     -255.641      75.291     -28.049
  N     -256.485      74.166     -27.657
  C     -257.362      74.405     -26.604
  O     -257.432      75.479     -26.007
  N     -258.142      73.344     -26.224
  C     -258.088      72.086     -26.751
  O     -258.786      71.167     -26.337
  C     -257.122      71.888     -27.842
  C     -256.375      72.921     -28.241
  O     -250.585      72.255     -30.802
  O     -252.481      70.733     -29.895
  H     -255.677      77.341     -26.576
  H     -251.792      70.396     -29.273
  H     -258.792      73.503     -25.472
  H     -257.052      70.901     -28.282
  H     -255.652      72.798     -29.045
  H     -256.303      76.129     -28.309
  H     -254.893      75.240     -25.959
  H     -253.272      74.163     -27.256
  H     -253.413      76.460     -29.264
  H     -252.826      74.646     -30.865
  H     -251.518      74.952     -29.694
  P     -251.127      74.999     -26.016
  C     -249.247      76.781     -26.252
  O     -250.101      76.058     -25.371
  O     -250.585      73.707     -26.538
  O     -252.084      74.651     -24.765
  H     -251.807      73.781     -24.416
  H     -248.626      77.442     -25.684
  H     -249.840      77.350     -26.937
  H     -248.633      76.095     -26.797

 6  7  8  9  10  11  12  13  14  15  16  26  31  32  33  34  35 0
 6-311+G(2d,p)
 ****
 36  37 0
 6-311+G(2d,p)
 ****
 1  2  3  4  5  17  18  19  20  21  22  23  24  25 0
 3-21G
 ****
 27  28  29  30  38  39  40  41  42  43  44  45 0
 3-21G
 ****


