%nproc=1
%NoSave
%Mem=1900MB
#P OB98/GEN NMR

erre ene a

0 1
  C     1651.248    2125.104    -899.020
  O     1651.661    2124.313    -897.950
  H     1651.262    2126.156    -898.780
  H     1651.955    2124.933    -899.860
  H     1650.238    2124.795    -899.360
  P     1650.749    2124.382    -896.610
  C     1651.371    2121.862    -896.540
  O     1651.054    2123.016    -895.770
  C     1652.167    2120.913    -895.650
  O     1651.402    2120.630    -894.430
  C     1652.456    2119.533    -896.280
  O     1653.544    2119.564    -897.160
  C     1652.740    2118.715    -895.030
  O     1654.045    2118.969    -894.570
  C     1651.675    2119.236    -894.040
  N     1649.351    2114.997    -892.380
  C     1650.610    2115.420    -892.200
  N     1651.194    2116.603    -892.690
  C     1650.257    2117.308    -893.390
  C     1648.922    2116.975    -893.640
  C     1648.504    2115.766    -893.100
  N     1647.200    2115.284    -893.250
  N     1648.314    2117.907    -894.440
  C     1649.260    2118.811    -894.610
  N     1650.440    2118.488    -894.040
  O     1649.252    2124.158    -897.140
  O     1650.886    2125.640    -895.800
  H     1654.107    2119.913    -894.340
  H     1648.603    2124.526    -896.500
  H     1651.294    2114.835    -891.610
  H     1649.091    2119.781    -895.220
  H     1652.050    2119.264    -892.990
  H     1652.669    2117.601    -895.230
  H     1651.540    2119.155    -896.800
  H     1653.087    2121.384    -895.340
  H     1652.026    2122.158    -897.390
  H     1647.028    2114.321    -892.950
  H     1646.575    2115.763    -893.890
  H     1650.473    2121.385    -896.890
  P     1653.545    2118.536    -898.380
  C     1655.519    2120.086    -899.210
  O     1654.992    2118.792    -899.100
  O     1652.516    2119.243    -899.420
  O     1653.198    2117.132    -898.060
  H     1652.099    2118.591    -900.000
  H     1656.465    2120.045    -899.707
  H     1655.647    2120.503    -898.233
  H     1654.846    2120.698    -899.774

 6  7  8  9  10  11  12  13  14  15  25  28  32  33  34  35 0
 6-311+G(2d,p)
 ****
 36  39  40 0
 6-311+G(2d,p)
 ****
 1  2  3  4  5  16  17  18  19  20  21  22  23  24 0
 3-21G
 ****
 26  27  29  30  31  37  38  41  42  43  44  45  46  47 0
 3-21G
 ****
 48 0
 3-21G
 ****


