%nproc=1
%NoSave
%Mem=1900MB
#P OB98/GEN NMR

erre ene a

0 1
  C      229.348    -422.285      49.120
  O      228.460    -421.371      49.776
  P      228.260    -421.519      51.359
  C      229.347    -419.234      51.969
  O      229.383    -420.648      52.099
  C      230.665    -418.617      52.439
  O      231.803    -419.372      51.984
  C      230.893    -417.199      51.935
  O      230.204    -416.244      52.730
  C      232.394    -417.055      52.122
  O      232.688    -416.764      53.501
  C      232.901    -418.457      51.758
  N      236.942    -418.315      48.613
  C      236.828    -418.114      49.943
  N      235.714    -418.150      50.709
  C      234.639    -418.445      49.963
  C      234.598    -418.674      48.597
  C      235.819    -418.599      47.909
  N      235.929    -418.807      46.552
  N      233.310    -418.936      48.181
  C      232.586    -418.880      49.281
  N      233.342    -418.577      50.381
  O      228.720    -423.026      51.639
  O      226.860    -421.280      51.818
  H      232.517    -417.580      54.008
  H      228.185    -423.406      52.364
  H      237.753    -417.895      50.467
  H      231.518    -419.054      49.329
  H      233.735    -418.775      52.396
  H      232.816    -416.242      51.527
  H      230.635    -417.115      50.870
  H      230.668    -418.620      53.538
  H      228.513    -418.826      52.547
  H      236.843    -418.767      46.134
  H      235.100    -419.045      46.025
  H      229.146    -418.979      50.923
  P      228.725    -415.827      52.262
  C      227.623    -417.039      54.280
  O      227.749    -416.940      52.874
  O      228.746    -416.145      50.693
  O      228.367    -414.409      52.544
  H      228.141    -415.537      50.222
  H      226.721    -417.609      54.512
  H      227.540    -416.050      54.740
  H      228.489    -417.564      54.692
  H      229.378    -422.064      48.074
  H      228.999    -423.286      49.263
  H      230.330    -422.187      49.534

 3  4  5  6  7  8  9  10  11  12  22  25  29  30  31  32 0
 6-311+G(2d,p)
 ****
 33  36  37 0
 6-311+G(2d,p)
 ****
 1  2  13  14  15  16  17  18  19  20  21  23  24  26 0
 3-21G
 ****
 27  28  34  35  38  39  40  41  42  43  44  45  46  47  48 0
 3-21G
 ****


