%nproc=1
%NoSave
%Mem=1900MB
#P OB98/GEN NMR

erre ene a

0 1
  C      -24.589    -794.231     -46.569
  O      -25.193    -795.280     -47.299
  H      -25.236    -793.971     -45.729
  H      -24.461    -793.351     -47.207
  H      -23.620    -794.553     -46.181
  P      -24.373    -795.836     -48.564
  C      -26.212    -795.999     -50.409
  O      -25.430    -796.676     -49.435
  C      -27.182    -796.988     -51.081
  O      -26.440    -798.195     -51.426
  C      -28.352    -797.414     -50.168
  O      -29.488    -797.704     -51.003
  C      -27.822    -798.711     -49.578
  O      -28.870    -799.458     -49.019
  C      -27.145    -799.300     -50.812
  N      -26.790    -804.252     -49.640
  C      -27.844    -803.478     -49.996
  N      -27.856    -802.163     -50.293
  C      -26.607    -801.662     -50.241
  C      -25.438    -802.321     -49.901
  C      -25.562    -803.688     -49.579
  N      -24.500    -804.470     -49.201
  N      -24.362    -801.449     -49.933
  C      -24.878    -800.287     -50.298
  N      -26.226    -800.369     -50.492
  O      -23.428    -796.956     -47.915
  O      -23.595    -794.820     -49.330
  H      -29.389    -798.926     -48.379
  H      -22.567    -796.570     -47.679
  H      -28.802    -803.988     -50.030
  H      -24.324    -799.363     -50.418
  H      -27.868    -799.693     -51.543
  H      -27.098    -798.511     -48.782
  H      -28.622    -796.658     -49.426
  H      -27.541    -796.552     -52.017
  H      -25.544    -795.565     -51.149
  H      -26.784    -795.203     -49.921
  H      -24.674    -805.435     -48.959
  H      -23.582    -804.053     -49.114
  P      -30.493    -796.513     -51.388
  C      -31.963    -796.150     -49.264
  O      -31.878    -796.659     -50.579
  O      -30.932    -796.924     -52.883
  O      -29.905    -795.139     -51.383
  H      -30.894    -796.138     -53.460
  H      -32.944    -796.329     -48.875
  H      -31.770    -795.098     -49.276
  H      -31.239    -796.638     -48.645

 6  7  8  9  10  11  12  13  14  15  25  28  32  33  34  35 0
 6-311+G(2d,p)
 ****
 36  37  40 0
 6-311+G(2d,p)
 ****
 1  2  3  4  5  16  17  18  19  20  21  22  23  24 0
 3-21G
 ****
 26  27  29  30  31  38  39 41  42  43  44  45  46  47  48 0
 3-21G
 ****


