%nproc=1
%NoSave
%Mem=1900MB
#P OB98/GEN NMR

erre ene a

0 1
  C      306.482      45.694     383.808
  O      305.284      45.243     384.411
  H      307.254      45.770     384.579
  H      306.332      46.679     383.356
  H      306.809      44.980     383.048
  P      304.008      45.097     383.451
  C      304.516      42.662     382.770
  O      303.653      43.530     383.496
  C      303.719      41.519     382.144
  O      304.502      40.948     381.064
  C      303.396      40.392     383.127
  O      302.086      39.891     382.854
  C      304.424      39.323     382.800
  O      303.987      38.017     383.157
  C      304.624      39.536     381.299
  N      307.277      35.387     379.963
  C      305.964      35.577     380.221
  N      305.336      36.725     380.556
  C      306.203      37.753     380.566
  C      307.564      37.713     380.329
  C      308.108      36.455     380.021
  N      309.444      36.247     379.782
  N      308.117      38.971     380.477
  C      307.106      39.759     380.785
  N      305.927      39.061     380.866
  O      304.157      45.679     382.083
  O      302.851      45.739     384.348
  H      304.642      37.370     382.816
  H      302.904      45.436     385.273
  H      305.335      34.692     380.158
  H      307.172      40.823     380.970
  H      303.871      39.014     380.699
  H      305.353      39.531     383.346
  H      303.459      40.713     384.167
  H      302.809      41.929     381.692
  H      305.283      42.253     383.435
  H      309.751      35.312     379.554
  H      310.081      37.031     379.800
  H      305.010      43.254     381.993
  P      300.870      40.403     383.764
  C      300.001      42.535     382.594
  O      299.800      41.143     382.821
  O      301.246      41.139     385.007
  O      300.109      39.036     384.124
  H      299.782      39.090     385.044
  H      299.228      42.908     381.955
  H      300.952      42.687     382.128
  H      299.974      43.056     383.528

 6  7  8  9  10  11  12  13  14  15  25  28  32  33  34  35 0
 6-311+G(2d,p)
 ****
 36  39  40 0
 6-311+G(2d,p)
 ****
 1  2  3  4  5  16  17  18  19  20  21  22  23  24 0
 3-21G
 ****
 26  27  29  30  31  37  38  41  42  43  44  45  46  47 0
 3-21G
 ****
 48 0
 3-21G
 ****


