%nproc=1
%NoSave
%Mem=1900MB
#P OB98/GEN NMR

erre ene a

0 1
  C     -185.602    -122.420     108.241
  O     -186.851    -123.070     108.124
  H     -185.739    -121.356     108.026
  H     -184.897    -122.835     107.518
  H     -185.200    -122.521     109.253
  P     -186.991    -124.577     108.647
  C     -186.734    -125.474     106.242
  O     -186.242    -125.507     107.574
  C     -185.695    -126.037     105.267
  O     -185.615    -127.482     105.457
  C     -186.030    -125.788     103.782
  O     -184.786    -125.646     103.083
  C     -186.717    -127.090     103.416
  O     -186.839    -127.246     102.027
  C     -185.816    -128.080     104.160
  N     -186.384    -129.416     104.271
  C     -185.550    -130.492     103.988
  O     -184.367    -130.379     103.676
  N     -186.129    -131.731     104.066
  C     -187.430    -131.988     104.385
  O     -187.892    -133.121     104.462
  C     -188.271    -130.809     104.645
  C     -187.719    -129.596     104.577
  O     -188.371    -125.015     109.005
  O     -186.010    -124.631     109.911
  H     -186.526    -124.513     110.731
  H     -186.990    -128.189     101.799
  H     -185.538    -132.523     103.865
  H     -189.313    -130.978     104.879
  H     -188.307    -128.703     104.761
  H     -184.834    -128.145     103.681
  H     -187.732    -127.110     103.824
  H     -186.641    -124.895     103.626
  H     -184.710    -125.628     105.525
  H     -186.958    -124.435     105.985
  H     -187.656    -126.063     106.184
  P     -184.162    -124.226     102.673
  C     -185.145    -124.312     100.290
  O     -185.044    -123.574     101.501
  O     -182.703    -124.282     102.353
  O     -184.424    -123.266     103.929
  H     -183.671    -122.654     104.029
  H     -185.755    -123.774      99.594
  H     -185.587    -125.266     100.489
  H     -184.169    -124.451      99.875

 6  7  8  9  10  11  12  13  14  15  16  27  31  32  33  34  35 0
 6-311+G(2d,p)
 ****
 36  37 0
 6-311+G(2d,p)
 ****
 1  2  3  4  5  17  18  19  20  21  22  23  24  25 0
 3-21G
 ****
 26  28  29  30  38  39  40  41  42  43  44  45 0
 3-21G
 ****


