%nproc=1
%NoSave
%Mem=1900MB
#P OB98/GEN NMR

erre ene a

0 1
  C      993.022     288.822     331.683
  O      993.015     290.052     332.403
  P      991.585     290.632     332.871
  C      992.076     290.197     335.381
  O      991.255     289.905     334.253
  C      991.407     291.235     336.283
  O      990.103     290.768     336.707
  C      992.166     291.564     337.552
  O      993.207     292.492     337.344
  C      991.063     292.178     338.411
  O      990.855     293.552     338.005
  C      989.841     291.311     338.027
  N      986.567     289.419     341.468
  C      986.566     290.570     340.761
  N      987.488     291.008     339.884
  C      988.501     290.140     339.762
  C      988.659     288.940     340.465
  C      987.630     288.584     341.342
  N      987.623     287.386     342.041
  N      989.841     288.335     340.096
  C      990.373     289.121     339.198
  N      989.609     290.229     338.963
  O      990.569     289.945     331.832
  O      991.482     292.124     332.865
  H      991.710     293.986     338.030
  H      989.753     290.479     331.772
  H      985.703     291.218     340.928
  H      991.322     288.942     338.688
  H      988.932     291.905     337.959
  H      991.309     292.185     339.470
  H      992.535     290.646     338.045
  H      991.248     292.149     335.691
  H      993.031     290.591     335.033
  H      986.766     287.123     342.515
  H      988.311     286.687     341.794
  H      992.257     289.278     335.950
  P      994.612     292.215     338.102
  C      996.018     292.142     335.926
  O      995.516     291.432     337.032
  O      994.210     291.101     339.173
  O      995.216     293.430     338.726
  H      994.828     291.126     339.930
  H      996.834     291.556     335.477
  H      996.391     293.122     336.202
  H      995.238     292.251     335.162
  H      994.030     288.558     331.438
  H      992.453     288.932     330.783
  H      992.589     288.053     332.287

 3  4  5  6  7  8  9  10  11  12  22  25  29  30  31  32 0
 6-311+G(2d,p)
 ****
 33  36  37 0
 6-311+G(2d,p)
 ****
 1  2  13  14  15  16  17  18  19  20  21  23  24  26 0
 3-21G
 ****
 27  28  34  35  38  39  40  41  42  43  44  45  46  47  48 0
 3-21G
 ****


