%nproc=1
%NoSave
%Mem=1900MB
#P OB98/GEN NMR

erre ene a

0 1
  C      487.591     -96.693    -272.207
  O      486.836     -96.364    -273.363
  P      485.944     -97.468    -274.112
  C      484.363     -95.463    -274.521
  O      484.964     -96.632    -275.067
  C      483.701     -94.656    -275.633
  O      482.893     -95.527    -276.453
  C      482.760     -93.561    -275.144
  O      483.487     -92.438    -274.670
  C      481.921     -93.321    -276.393
  O      482.634     -92.489    -277.322
  C      481.787     -94.748    -276.967
  N      480.509     -95.369    -276.642
  C      479.854     -96.028    -277.686
  O      480.346     -96.083    -278.809
  N      478.660     -96.652    -277.419
  C      478.150     -96.602    -276.227
  N      476.997     -97.295    -276.007
  C      478.779     -95.869    -275.114
  C      479.944     -95.289    -275.386
  O      485.254     -98.436    -273.213
  O      486.941     -98.150    -275.152
  H      483.548     -92.829    -277.361
  H      487.438     -98.920    -274.778
  H      478.313     -95.843    -274.138
  H      480.483     -94.750    -274.618
  H      481.905     -94.732    -278.055
  H      480.957     -92.841    -276.188
  H      482.118     -93.939    -274.340
  H      484.491     -94.226    -276.266
  H      476.700     -97.920    -276.746
  H      485.142     -94.855    -274.052
  H      476.703     -97.542    -275.070
  H      483.634     -95.757    -273.759
  P      482.890     -91.646    -273.411
  C      485.390     -91.558    -272.732
  O      484.138     -90.898    -272.729
  O      482.516     -92.817    -272.384
  O      481.716     -90.781    -273.726
  H      481.558     -92.995    -272.405
  H      486.164     -90.838    -272.458
  H      485.618     -91.957    -273.726
  H      485.389     -92.367    -271.999
  H      488.112     -95.824    -271.862
  H      488.297     -97.460    -272.448
  H      486.933     -97.043    -271.439

 3  4  5  6  7  8  9  10  11  12  13  23  27  28  29  30  32 0
 6-311+G(2d,p)
 ****
 34  35 0
 6-311+G(2d,p)
 ****
 1  2  14  15  16  17  18  19  20  21  22  24  25  26 0
 3-21G
 ****
 31  33  36  37  38  39  40  41  42  43  44  45  46 0
 3-21G
 ****


