%nproc=1
%NoSave
%Mem=1900MB
#P OB98/GEN NMR

erre ene a

0 1
  C      470.577    -899.091     427.004
  O      469.179    -899.351     426.885
  P      468.073    -898.241     426.539
  C      467.236    -897.701     428.977
  O      467.920    -897.271     427.809
  C      467.224    -896.601     430.042
  O      466.460    -895.451     429.539
  C      466.538    -897.031     431.348
  O      467.215    -896.581     432.522
  C      465.095    -896.561     431.151
  O      464.377    -896.461     432.370
  C      465.281    -895.281     430.377
  N      462.058    -891.561     429.062
  C      463.042    -891.541     430.024
  N      463.197    -890.401     430.728
  N      463.831    -892.561     430.266
  C      463.525    -893.671     429.532
  C      462.535    -893.801     428.556
  C      461.731    -892.641     428.257
  O      460.851    -892.591     427.414
  N      462.539    -895.091     428.030
  C      463.479    -895.711     428.676
  N      464.132    -894.881     429.587
  O      466.811    -898.771     425.938
  O      468.798    -897.301     425.448
  H      464.841    -895.801     432.933
  H      468.088    -896.991     424.861
  H      461.495    -890.711     428.875
  H      463.760    -896.741     428.522
  H      465.489    -894.421     431.042
  H      464.584    -897.301     430.540
  H      462.551    -889.641     430.672
  H      466.549    -898.141     431.443
  H      463.762    -890.471     431.557
  H      468.209    -896.241     430.226
  H      467.790    -898.571     429.364
  H      466.221    -898.031     428.731
  P      468.509    -897.251     433.242
  C      467.897    -898.611     435.350
  O      468.068    -898.611     433.919
  O      468.794    -896.291     434.475
  O      469.705    -897.361     432.346
  H      469.688    -895.891     434.385
  H      467.863    -899.621     435.702
  H      466.967    -898.111     435.594
  H      468.738    -898.091     435.803
  H      471.090    -900.000     427.240
  H      470.742    -898.376     427.783
  H      470.948    -898.702     426.079

 3  4  5  6  7  8  9  10  11  12  23  26  30  31 0
 6-311+G(2d,p)
 ****
 33  35  36  37  38 0
 6-311+G(2d,p)
 ****
 1  2  13  14  15  16  17  18  19  20  21  22  24  25 0
 3-21G
 ****
 27  28  29  32  34  39  40  41  42  43  44  45  46  47  48  49 0
 3-21G
 ****


