%nproc=1
%NoSave
%Mem=1900MB
#P OB98/GEN NMR

erre ene a

0 1
  C     -382.692     690.494    -501.096
  O     -383.109     691.778    -501.537
  P     -384.479     691.870    -502.365
  C     -385.116     692.124    -504.854
  O     -384.067     691.964    -503.915
  C     -384.611     692.779    -506.134
  O     -384.239     694.163    -505.835
  C     -383.376     692.100    -506.758
  O     -383.545     692.014    -508.182
  C     -382.245     693.092    -506.480
  O     -381.186     692.956    -507.420
  C     -383.009     694.415    -506.553
  N     -379.995     698.325    -507.623
  C     -380.725     697.517    -508.478
  N     -380.590     697.751    -509.801
  N     -381.514     696.555    -508.061
  C     -381.582     696.460    -506.707
  C     -380.913     697.200    -505.774
  C     -379.998     698.224    -506.231
  O     -379.254     698.911    -505.543
  N     -381.258     696.821    -504.490
  C     -382.125     695.840    -504.662
  N     -382.321     695.551    -505.989
  O     -384.998     693.349    -502.022
  O     -385.498     690.840    -502.024
  H     -381.604     692.942    -508.304
  H     -385.903     693.301    -501.649
  H     -379.373     699.036    -507.998
  H     -382.613     695.284    -503.856
  H     -383.266     694.651    -507.593
  H     -381.850     692.905    -505.474
  H     -380.020     698.488    -510.188
  H     -383.162     691.095    -506.346
  H     -381.129     697.183    -510.433
  H     -385.430     692.831    -506.857
  H     -385.907     692.754    -504.412
  H     -385.548     691.140    -505.090
  P     -383.195     690.602    -508.837
  C     -380.998     689.677    -509.900
  O     -381.595     690.540    -508.964
  O     -383.687     690.773    -510.361
  O     -383.848     689.431    -508.163
  H     -383.892     689.898    -510.757
  H     -381.733     689.240    -510.588
  H     -380.491     688.876    -509.372
  H     -380.263     690.236    -510.494
  H     -381.770     690.583    -500.561
  H     -382.554     689.854    -501.942
  H     -383.439     690.078    -500.452

 3  4  5  6  7  8  9  10  11  12  23  26  30  31  33  0
 6-311+G(2d,p)
 ****
 35  36  37  38 0
 6-311+G(2d,p)
 ****
 1  2  13  14  15  16  17  18  19  20  21  22  24  25  27  28  29 0
 3-21G
 ****
 32  34  39  40  41  42  43  44  45  46  47  48  49 0
 3-21G
 ****


