%nproc=1
%NoSave
%Mem=1900MB
#P OB98/GEN NMR

erre ene a

0 1
  C      -52.608    -141.680      -0.266
  O      -53.600    -142.456      -0.911
  H      -52.832    -140.622      -0.423
  H      -51.623    -141.898      -0.691
  H      -52.606    -141.886       0.808
  P      -53.409    -144.048      -0.847
  C      -51.907    -144.086      -2.960
  O      -52.011    -144.365      -1.571
  C      -51.381    -145.304      -3.712
  O      -50.036    -145.624      -3.293
  C      -52.213    -146.568      -3.522
  O      -53.321    -146.586      -4.406
  C      -51.187    -147.648      -3.840
  O      -51.034    -147.810      -5.267
  C      -49.908    -147.071      -3.217
  N      -47.357    -150.285      -0.276
  C      -47.433    -150.205      -1.650
  N      -46.748    -151.137      -2.352
  N      -48.127    -149.299      -2.290
  C      -48.807    -148.470      -1.463
  C      -48.816    -148.450      -0.087
  C      -47.999    -149.423       0.605
  O      -47.825    -149.492       1.820
  N      -49.616    -147.440       0.388
  C      -50.114    -146.878      -0.694
  N      -49.656    -147.471      -1.845
  O      -54.496    -144.597      -1.889
  O      -53.598    -144.663       0.500
  H      -51.905    -147.991      -5.660
  H      -54.881    -145.421      -1.537
  H      -46.783    -150.983       0.160
  H      -50.798    -146.037      -0.704
  H      -49.016    -147.345      -3.791
  H      -51.493    -148.622      -3.451
  H      -46.451    -152.007      -1.935
  H      -52.536    -146.674      -2.478
  H      -46.866    -151.120      -3.359
  H      -51.329    -145.038      -4.776
  H      -51.217    -143.246      -3.101
  H      -52.892    -143.809      -3.344
  P      -54.633    -147.393      -3.963
  C      -54.274    -149.523      -5.405
  O      -54.319    -148.961      -4.099
  O      -55.652    -147.105      -5.161
  O      -55.214    -146.968      -2.653
  H      -56.328    -146.466      -4.877
  H      -54.056    -150.568      -5.336
  H      -53.511    -149.037      -5.977
  H      -55.221    -149.387      -5.885

 6  7  8  9  10  11  12  13  14  15  26  29  33  34 0
 6-311+G(2d,p)
 ****
 36  38  39  40  41 0
 6-311+G(2d,p)
 ****
 1  2  3  4  5  16  17  18  19  20  21  22  23  24  25 0
 3-21G
 ****
 27  28  30  31  32  35  37  42  43  44  45  46  47 0
 3-21G
 ****
 48  49 0
 3-21G
 ****


