%nproc=1
%NoSave
%Mem=1900MB
#P OB98/GEN NMR

erre ene a

0 1
  C      -41.833     247.342     -34.999
  O      -42.020     247.054     -33.633
  P      -43.445     247.023     -32.921
  C      -43.673     244.497     -32.286
  O      -44.087     245.568     -33.126
  C      -44.875     243.860     -31.572
  O      -45.748     243.275     -32.573
  C      -44.439     242.720     -30.637
  O      -45.119     242.702     -29.388
  C      -44.566     241.488     -31.521
  O      -44.658     240.273     -30.792
  C      -45.777     241.846     -32.377
  N      -47.660     237.999     -35.110
  C      -48.051     238.455     -33.866
  N      -48.927     237.675     -33.197
  N      -47.593     239.552     -33.324
  C      -46.639     240.165     -34.063
  C      -46.174     239.808     -35.307
  C      -46.710     238.613     -35.909
  O      -46.312     238.110     -36.959
  N      -45.156     240.626     -35.723
  C      -44.980     241.459     -34.716
  N      -45.835     241.197     -33.671
  O      -44.324     248.214     -33.127
  O      -43.029     246.988     -31.360
  H      -43.783     240.103     -30.396
  H      -43.710     247.490     -30.869
  H      -47.991     237.100     -35.443
  H      -44.234     242.244     -34.677
  H      -46.713     241.596     -31.873
  H      -43.660     241.426     -32.132
  H      -49.181     236.755     -33.527
  H      -43.388     242.843     -30.348
  H      -49.034     237.851     -32.201
  H      -45.439     244.641     -31.050
  H      -42.985     244.930     -31.551
  H      -43.123     243.748     -32.860
  P      -44.617     242.137     -27.983
  C      -43.559     244.435     -27.564
  O      -43.390     243.033     -27.481
  O      -43.918     240.740     -28.322
  O      -45.696     241.941     -26.969
  H      -44.134     240.088     -27.628
  H      -42.583     244.915     -27.460
  H      -44.209     244.774     -26.753
  H      -43.995     244.718     -28.527
  H      -40.790     247.301     -35.233
  H      -42.207     248.322     -35.211
  H      -42.360     246.623     -35.591

 3  4  5  6  7  8  9  10  11  12  23  26  30  31 0
 6-311+G(2d,p)
 ****
 33  35  36  37  38 0
 6-311+G(2d,p)
 ****
 1  2  13  14  15  16  17  18  19  20  21  22  24  25 0
 3-21G
 ****
 27  28  29  32  34  39  40  41  42  43  44  45  46  47  48  49 0
 3-21G
 ****


