%nproc=1
%NoSave
%Mem=1900MB
#P OB98/GEN NMR

erre ene a

0 1
  C       77.703     131.699     -66.718
  O       77.649     132.260     -65.418
  P       76.471     131.770     -64.442
  C       78.336     131.146     -62.740
  O       77.142     130.751     -63.401
  C       78.015     131.680     -61.347
  O       77.277     130.705     -60.583
  C       79.242     132.005     -60.505
  O       79.797     133.270     -60.823
  C       78.640     132.025     -59.109
  O       77.980     133.283     -58.876
  C       77.613     130.888     -59.186
  N       79.495     128.656     -55.055
  C       78.909     129.898     -55.198
  N       78.875     130.676     -54.095
  N       78.401     130.336     -56.318
  C       78.514     129.452     -57.340
  C       79.071     128.193     -57.319
  C       79.641     127.727     -56.075
  O       80.220     126.660     -55.899
  N       78.994     127.593     -58.547
  C       78.390     128.481     -59.311
  N       78.119     129.643     -58.636
  O       75.591     130.814     -65.377
  O       75.663     132.869     -63.841
  H       77.664     133.265     -57.951
  H       74.711     130.677     -64.979
  H       79.878     128.366     -54.170
  H       78.147     128.336     -60.356
  H       76.687     131.139     -58.658
  H       79.390     131.908     -58.321
  H       79.305     130.422     -53.218
  H       79.990     131.205     -60.567
  H       78.508     131.617     -54.186
  H       77.381     132.570     -61.463
  H       78.831     131.923     -63.325
  H       79.010     130.286     -62.669
  P       81.399     133.362     -60.878
  C       81.264     133.762     -63.441
  O       81.796     132.988     -62.383
  O       81.862     132.088     -60.028
  O       81.963     134.636     -60.343
  H       82.745     132.240     -59.641
  H       81.833     133.549     -64.351
  H       81.341     134.830     -63.223
  H       80.218     133.494     -63.609
  H       78.532     132.115     -67.252
  H       76.795     131.920     -67.240
  H       77.822     130.638     -66.644

 3  4  5  6  7  8  9  10  11  12  23  26  30  31 0
 6-311+G(2d,p)
 ****
 33  35  36  37  38 0
 6-311+G(2d,p)
 ****
 1  2  13  14  15  16  17  18  19  20  21  22  24  25 0
 3-21G
 ****
 27  28  29  32  34  39  40  41  42  43  44  45  46  47  48  49 0
 3-21G
 ****


