%nproc=1
%NoSave
%Mem=1900MB
#P OB98/GEN NMR

erre ene a

0 1
  C     -457.204    -320.486    -115.858
  O     -456.175    -320.520    -114.874
  P     -456.246    -319.484    -113.652
  C     -457.232    -320.992    -111.712
  O     -457.387    -319.930    -112.629
  C     -457.881    -320.603    -110.372
  O     -459.264    -320.238    -110.575
  C     -457.855    -321.728    -109.343
  O     -456.655    -321.743    -108.599
  C     -459.080    -321.409    -108.505
  O     -458.792    -320.333    -107.588
  C     -460.079    -320.939    -109.590
  N     -460.882    -321.967    -110.288
  C     -462.173    -322.252    -109.852
  O     -462.717    -321.704    -108.895
  N     -462.854    -323.206    -110.565
  C     -462.459    -323.765    -111.749
  O     -463.134    -324.567    -112.374
  C     -461.154    -323.319    -112.246
  C     -460.432    -322.469    -111.504
  O     -456.831    -318.155    -114.319
  O     -454.933    -319.239    -112.973
  H     -457.989    -320.587    -107.093
  H     -456.171    -317.438    -114.286
  H     -463.764    -323.476    -110.222
  H     -460.820    -323.703    -113.197
  H     -459.464    -322.133    -111.866
  H     -460.789    -320.214    -109.174
  H     -459.375    -322.259    -107.890
  H     -458.029    -322.692    -109.832
  H     -457.351    -319.723    -109.972
  H     -456.175    -321.224    -111.557
  H     -457.698    -321.895    -112.112
  P     -456.444    -322.850    -107.453
  C     -455.012    -324.445    -108.867
  O     -456.257    -324.245    -108.229
  O     -457.442    -322.851    -106.348
  O     -454.956    -322.555    -106.920
  H     -454.984    -321.988    -106.114
  H     -454.957    -325.482    -109.218
  H     -454.187    -324.263    -108.167
  H     -454.923    -323.780    -109.727
  H     -457.013    -321.233    -116.600
  H     -457.224    -319.521    -116.320
  H     -458.148    -320.678    -115.393

 3  4  5  6  7  8  9  10  11  12  13  23  28  29  30  31  32 0
 6-311+G(2d,p)
 ****
 33  34 0
 6-311+G(2d,p)
 ****
 1  2  14  15  16  17  18  19  20  21  22  24  25  26  27 0
 3-21G
 ****
 35  36  37  38  39  40  41  42  43  44  45 0
 3-21G
 ****


