%nproc=1
%NoSave
%Mem=1900MB
#P OB98/GEN NMR

erre ene a

0 1
  C      128.378     532.916     308.614
  O      128.223     533.768     307.502
  H      128.303     533.510     309.530
  H      129.367     532.444     308.580
  H      127.606     532.141     308.637
  P      127.837     533.131     306.088
  C      128.968     531.078     304.999
  O      129.140     532.401     305.492
  C      130.260     530.266     305.092
  O      130.668     530.156     306.478
  C      130.093     528.841     304.570
  O      130.297     528.701     303.168
  C      131.169     528.088     305.354
  O      132.437     528.125     304.679
  C      131.245     528.859     306.679
  N      131.431     525.171     310.215
  C      132.294     525.405     309.162
  N      133.307     524.527     309.022
  N      132.153     526.401     308.326
  C      131.034     527.140     308.536
  C      130.100     526.989     309.533
  C      130.292     525.930     310.498
  O      129.569     525.688     311.458
  N      129.074     527.902     309.406
  C      129.356     528.539     308.283
  N      130.576     528.169     307.770
  O      127.687     534.409     305.130
  O      126.578     532.315     306.073
  H      132.380     527.545     303.891
  H      127.017     534.228     304.446
  H      131.595     524.407     310.842
  H      128.738     529.310     307.830
  H      132.283     529.018     306.993
  H      130.900     527.032     305.469
  H      133.408     523.690     309.585
  H      129.116     528.430     304.850
  H      133.849     524.550     308.160
  H      131.060     530.802     304.566
  H      128.656     531.175     303.961
  H      128.159     530.577     305.539
  P      129.727     527.432     302.384
  C      129.696     524.907     303.104
  O      130.407     526.122     302.979
  O      130.405     527.574     300.931
  O      128.235     527.344     302.301
  H      129.773     527.978     300.306
  H      130.337     524.160     303.524
  H      129.362     524.588     302.139
  H      128.851     525.052     303.744

 6  7  8  9  10  11  12  13  14  15  26  29  33  34 0
 6-311+G(2d,p)
 ****
 36  38  39  40  41 0
 6-311+G(2d,p)
 ****
 1  2  3  4  5  16  17  18  19  20  21  22  23  24  25 0
 3-21G
 ****
 27  28  30  31  32  35  37  42  43  44  45  46  47 0
 3-21G
 ****
 48  49 0
 3-21G
 ****


