%nproc=1
%NoSave
%Mem=1900MB
#P OB98/GEN NMR

erre ene a

0 1
  C      -43.462     631.657     189.207
  O      -44.517     632.570     189.013
  H      -43.870     630.726     189.603
  H      -42.751     632.067     189.932
  H      -42.940     631.441     188.270
  P      -44.288     633.818     188.037
  C      -42.609     635.094     189.529
  O      -43.904     635.090     188.936
  C      -41.734     636.217     188.969
  O      -41.518     636.010     187.561
  C      -42.386     637.593     189.118
  O      -42.136     638.234     190.361
  C      -41.747     638.369     187.967
  O      -40.510     638.979     188.369
  C      -41.496     637.290     186.912
  N      -43.172     639.646     182.698
  C      -42.235     640.077     183.612
  N      -41.712     641.306     183.396
  N      -41.865     639.374     184.654
  C      -42.548     638.214     184.789
  C      -43.511     637.690     183.957
  C      -43.859     638.445     182.771
  O      -44.672     638.100     181.919
  N      -44.017     636.510     184.444
  C      -43.417     636.364     185.610
  N      -42.462     637.330     185.825
  O      -45.772     634.179     187.543
  O      -43.389     633.564     186.867
  H      -39.868     638.263     188.541
  H      -45.735     634.544     186.639
  H      -43.393     640.223     181.900
  H      -43.599     635.556     186.310
  H      -40.503     637.398     186.455
  H      -42.408     639.179     187.630
  H      -42.021     641.920     182.663
  H      -43.465     637.539     188.936
  H      -41.167     641.738     184.144
  H      -40.750     636.183     189.456
  H      -42.164     634.124     189.300
  H      -42.690     635.172     190.617
  P      -43.262     638.291     191.495
  C      -44.963     639.651     190.023
  O      -44.200     639.548     191.207
  O      -42.436     638.730     192.795
  O      -44.018     637.018     191.714
  H      -42.229     637.955     193.349
  H      -45.516     640.567     190.034
  H      -45.641     638.826     189.963
  H      -44.310     639.639     189.176

 6  7  8  9  10  11  12  13  14  15  26  29  33  34 0
 6-311+G(2d,p)
 ****
 36  38  39  40  41 0
 6-311+G(2d,p)
 ****
 1  2  3  4  5  16  17  18  19  20  21  22  23  24  25 0
 3-21G
 ****
 27  28  30  31  32  35  37  42  43  44  45  46  47 0
 3-21G
 ****
 48  49 0
 3-21G
 ****


