%nproc=1
%NoSave
%Mem=1900MB
#P OB98/GEN NMR

erre ene a

0 1
  C     -424.708     -79.855     -30.829
  O     -425.666     -80.353     -31.743
  H     -424.087     -80.689     -30.481
  H     -425.206     -79.406     -29.969
  H     -424.065     -79.117     -31.318
  P     -426.686     -79.284     -32.373
  C     -426.138     -79.999     -34.809
  O     -427.135     -79.885     -33.798
  C     -426.767     -80.483     -36.120
  O     -427.407     -81.772     -35.884
  C     -427.835     -79.539     -36.687
  O     -427.730     -79.526     -38.111
  C     -429.138     -80.214     -36.293
  O     -430.220     -79.822     -37.132
  C     -428.741     -81.682     -36.415
  N     -433.551     -83.131     -36.096
  C     -432.935     -82.256     -36.970
  N     -433.715     -81.676     -37.912
  N     -431.656     -81.977     -36.931
  C     -430.991     -82.651     -35.964
  C     -431.490     -83.529     -35.029
  C     -432.907     -83.816     -35.070
  O     -433.514     -84.553     -34.309
  N     -430.494     -83.974     -34.189
  C     -429.401     -83.363     -34.618
  N     -429.652     -82.556     -35.693
  O     -425.741     -78.054     -32.774
  O     -427.809     -78.866     -31.486
  H     -430.977     -80.407     -36.938
  H     -426.227     -77.210     -32.718
  H     -434.540     -83.304     -36.165
  H     -428.415     -83.472     -34.183
  H     -428.725     -82.026     -37.457
  H     -429.394     -79.958     -35.255
  H     -434.703     -81.867     -38.023
  H     -427.761     -78.517     -36.308
  H     -433.280     -81.038     -38.571
  H     -425.966     -80.656     -36.845
  H     -425.378     -80.717     -34.479
  H     -425.671     -79.022     -34.964
  P     -427.882     -78.112     -38.855
  C     -425.435     -77.907     -39.712
  O     -426.805     -78.037     -40.051
  O     -427.305     -77.080     -37.778
  O     -429.286     -77.775     -39.239
  H     -428.030     -76.554     -37.397
  H     -424.848     -77.871     -40.606
  H     -425.133     -78.746     -39.121
  H     -425.290     -77.006     -39.153

 6  7  8  9  10  11  12  13  14  15  26  29  33  34 0
 6-311+G(2d,p)
 ****
 36  38  39  40  41 0
 6-311+G(2d,p)
 ****
 1  2  3  4  5  16  17  18  19  20  21  22  23  24  25 0
 3-21G
 ****
 27  28  30  31  32  35  37  42  43  44  45  46  47 0
 3-21G
 ****
 48  49 0
 3-21G
 ****


