%nproc=1
%NoSave
%Mem=1900MB
#P OB98/GEN NMR

erre ene a

0 1
  C       81.998     195.263       2.835
  O       81.321     194.259       3.566
  H       81.292     196.039       2.532
  H       82.760     195.710       3.478
  H       82.485     194.835       1.954
  P       80.276     193.354       2.752
  C       81.120     190.977       3.380
  O       80.141     191.987       3.584
  C       82.319     191.202       4.304
  O       81.850     191.229       5.678
  C       83.385     190.107       4.198
  O       84.677     190.710       4.299
  C       83.122     189.238       5.416
  O       84.281     188.525       5.830
  C       82.627     190.271       6.424
  N       81.938     189.919      11.469
  C       82.763     190.683      10.723
  N       82.881     190.720       9.378
  C       81.992     189.890       8.803
  C       81.091     189.050       9.432
  C       81.088     189.075      10.837
  N       80.277     188.274      11.608
  N       80.375     188.323       8.500
  C       80.837     188.720       7.331
  N       81.818     189.662       7.464
  O       81.127     192.926       1.461
  O       78.993     194.017       2.382
  H       85.017     189.164       5.926
  H       81.131     193.660       0.818
  H       83.421     191.347      11.276
  H       80.506     188.355       6.369
  H       83.449     190.802       6.920
  H       82.336     188.509       5.186
  H       83.320     189.541       3.267
  H       82.742     192.191       4.094
  H       81.452     191.010       2.338
  H       80.381     188.318      12.608
  H       79.682     187.596      11.155
  H       80.676     189.997       3.584
  P       85.229     191.460       2.993
  C       86.805     193.269       3.973
  O       86.700     192.019       3.306
  O       84.328     192.781       2.915
  O       85.112     190.648       1.743
  H       83.964     192.884       2.017
  H       87.837     193.513       4.113
  H       86.320     193.207       4.925
  H       86.336     194.029       3.383

 6  7  8  9  10  11  12  13  14  15  25  28  32  33  34  35 0
 6-311+G(2d,p)
 ****
 36  39  40 0
 6-311+G(2d,p)
 ****
 1  2  3  4  5  16  17  18  19  20  21  22  23  24 0
 3-21G
 ****
 26  27  29  30  31  37  38  41  42  43  44  45  46  47 0
 3-21G
 ****
 48 0
 3-21G
 ****


