%nproc=1
%NoSave
%Mem=1900MB
#P OB98/GEN NMR

erre ene a

0 1
  C     -502.932      51.462     428.686
  O     -503.191      50.086     428.899
  P     -503.002      49.446     430.355
  C     -505.258      48.227     430.516
  O     -504.450      49.292     431.023
  C     -506.659      48.748     430.182
  O     -506.572      49.819     429.198
  C     -507.575      47.703     429.564
  O     -508.070      46.812     430.552
  C     -508.638      48.584     428.916
  O     -509.611      49.012     429.883
  C     -507.800      49.784     428.436
  N     -509.061      51.592     423.828
  C     -509.646      51.713     425.028
  N     -509.278      51.171     426.214
  C     -508.180      50.413     426.053
  C     -507.483      50.157     424.870
  C     -507.954      50.807     423.717
  N     -507.318      50.745     422.487
  N     -506.424      49.304     425.109
  C     -506.482      49.031     426.396
  N     -507.481      49.726     427.020
  O     -501.978      50.114     431.214
  O     -502.579      47.932     430.053
  H     -510.119      48.215     430.141
  H     -501.693      47.757     430.423
  H     -510.539      52.343     425.065
  H     -505.822      48.355     426.929
  H     -508.315      50.737     428.616
  H     -509.175      48.069     428.112
  H     -507.040      47.142     428.782
  H     -507.099      49.162     431.097
  H     -505.331      47.454     431.286
  H     -507.658      51.368     421.775
  H     -506.353      50.442     422.470
  H     -504.792      47.811     429.625
  P     -507.134      45.649     431.122
  C     -507.212      46.470     433.555
  O     -506.404      46.246     432.422
  O     -506.239      44.995     430.120
  O     -508.177      44.605     431.753
  H     -507.820      43.695     431.659
  H     -507.781      47.400     433.419
  H     -506.577      46.566     434.435
  H     -507.916      45.636     433.710
  H     -503.112      51.704     427.659
  H     -501.912      51.675     428.929
  H     -503.576      52.047     429.309

 3  4  5  6  7  8  9  10  11  12  22  25  29  30  31  32 0
 6-311+G(2d,p)
 ****
 33  36  37 0
 6-311+G(2d,p)
 ****
 1  2  13  14  15  16  17  18  19  20  21  23  24  26 0
 3-21G
 ****
 27  28  34  35  38  39  40  41  42  43  44  45  46  47  48 0
 3-21G
 ****


