%nproc=1
%NoSave
%Mem=1900MB
#P OB98/GEN NMR

erre ene a

0 1
  C        4.090      -1.904      34.518
  O        3.862      -2.343      33.190
  P        2.550      -1.789      32.447
  C        1.672      -4.118      31.685
  O        1.462      -2.964      32.488
  C        1.299      -5.377      32.464
  O        1.613      -5.206      33.861
  C       -0.181      -5.733      32.422
  O       -0.534      -6.309      31.175
  C       -0.274      -6.681      33.612
  O        0.217      -7.981      33.247
  C        0.681      -6.020      34.622
  N       -0.928      -5.637      39.466
  C       -0.296      -6.629      38.802
  N        0.080      -6.666      37.508
  C       -0.254      -5.525      36.884
  C       -0.919      -4.437      37.423
  C       -1.261      -4.517      38.782
  N       -1.910      -3.504      39.454
  N       -1.110      -3.458      36.472
  C       -0.558      -3.941      35.379
  N       -0.015      -5.180      35.580
  O        2.992      -1.747      30.912
  O        2.070      -0.456      32.929
  H       -0.004      -8.590      33.980
  H        2.571      -0.997      30.448
  H       -0.058      -7.512      39.390
  H       -0.522      -3.432      34.426
  H        1.267      -6.753      35.188
  H       -1.296      -6.807      33.983
  H       -0.794      -4.842      32.604
  H        1.902      -6.207      32.075
  H        2.728      -4.179      31.401
  H       -2.248      -3.703      40.383
  H       -2.280      -2.735      38.910
  H        1.074      -4.030      30.773
  P       -1.659      -5.560      30.311
  C       -2.879      -7.812      30.503
  O       -2.994      -6.404      30.607
  O       -1.281      -6.013      28.826
  O       -1.754      -4.092      30.541
  H       -1.140      -6.973      28.762
  H       -3.836      -8.261      30.779
  H       -2.104      -8.180      31.181
  H       -2.640      -8.094      29.474
  H        4.991      -2.346      34.890
  H        3.267      -2.196      35.137
  H        4.184      -0.838      34.530

 3  4  5  6  7  8  9  10  11  12  22  25  29  30  31  32 0
 6-311+G(2d,p)
 ****
 33  36  37 0
 6-311+G(2d,p)
 ****
 1  2  13  14  15  16  17  18  19  20  21  23  24  26 0
 3-21G
 ****
 27  28  34  35  38  39  40  41  42  43  44  45  46  47  48 0
 3-21G
 ****


