%nproc=1
%NoSave
%Mem=1900MB
#P OB98/GEN NMR

erre ene a

0 1
  C      -11.963    -133.281    -254.842
  O      -13.335    -133.079    -254.500
  P      -13.828    -131.628    -254.041
  C      -16.059    -131.385    -255.331
  O      -15.430    -131.577    -254.068
  C      -17.506    -130.927    -255.133
  O      -18.361    -132.023    -254.728
  C      -17.652    -129.891    -254.025
  O      -17.115    -128.610    -254.274
  C      -19.136    -129.972    -253.701
  O      -19.915    -129.189    -254.604
  C      -19.419    -131.480    -253.907
  N      -19.539    -132.208    -252.645
  C      -20.704    -132.945    -252.472
  O      -21.618    -132.968    -253.297
  N      -20.805    -133.638    -251.296
  C      -19.892    -133.634    -250.284
  O      -20.044    -134.254    -249.240
  C      -18.688    -132.817    -250.510
  C      -18.568    -132.152    -251.661
  O      -13.146    -130.474    -254.693
  O      -13.515    -131.633    -252.462
  H      -19.802    -128.255    -254.355
  H      -13.160    -130.754    -252.228
  H      -21.642    -134.185    -251.157
  H      -17.945    -132.786    -249.728
  H      -17.690    -131.545    -251.850
  H      -20.352    -131.623    -254.465
  H      -19.348    -129.606    -252.691
  H      -17.117    -130.269    -253.140
  H      -17.886    -130.549    -256.085
  H      -16.032    -132.315    -255.901
  H      -15.483    -130.651    -255.906
  P      -16.299    -127.771    -253.175
  C      -14.958    -125.920    -254.399
  O      -16.137    -126.266    -253.706
  O      -15.096    -128.416    -252.572
  O      -17.413    -127.593    -252.027
  H      -16.961    -127.588    -251.161
  H      -15.013    -124.859    -254.667
  H      -14.864    -126.509    -255.311
  H      -14.082    -126.072    -253.761
  H      -11.812    -134.302    -255.123
  H      -11.347    -133.049    -253.998
  H      -11.702    -132.643    -255.661

 3  4  5  6  7  8  9  10  11  12  13  23  28  29  30  31  32 0
 6-311+G(2d,p)
 ****
 33  34 0
 6-311+G(2d,p)
 ****
 1  2  14  15  16  17  18  19  20  21  22  24  25  26  27 0
 3-21G
 ****
 35  36  37  38  39  40  41  42  43  44  45 0
 3-21G
 ****


