%nproc=1
%NoSave
%Mem=1900MB
#P OB98/GEN NMR

erre ene a

0 1
  C      780.981    -891.820     681.362
  O      782.341    -892.070     681.043
  P      783.049    -893.430     681.584
  C      782.500    -894.960     679.589
  O      783.530    -894.270     680.316
  C      783.109    -895.670     678.396
  O      783.792    -894.760     677.504
  C      784.124    -896.730     678.762
  O      783.542    -897.890     679.294
  C      784.826    -896.950     677.395
  O      784.024    -897.810     676.574
  C      784.796    -895.520     676.791
  N      786.122    -894.890     676.876
  C      787.047    -895.240     675.898
  O      786.749    -896.110     675.041
  N      788.254    -894.580     675.857
  C      788.548    -893.750     676.793
  N      789.772    -893.130     676.711
  C      787.692    -893.470     677.964
  C      786.486    -894.050     677.924
  O      782.287    -894.180     682.603
  O      784.432    -892.860     682.194
  H      784.536    -893.230     683.091
  H      783.858    -898.630     677.122
  H      788.012    -892.810     678.743
  H      785.735    -893.880     678.681
  H      784.475    -895.560     675.745
  H      785.813    -897.390     677.483
  H      784.872    -896.320     679.457
  H      782.283    -896.140     677.813
  H      790.341    -893.330     675.898
  H      781.779    -894.230     679.235
  H      789.949    -892.250     677.209
  H      781.993    -895.650     680.240
  P      784.563    -898.890     680.109
  C      784.206    -898.670     682.669
  O      783.815    -899.340     681.452
  O      785.716    -897.920     680.606
  O      785.061    -900.000     679.277
  H      786.591    -898.380     680.545
  H      783.404    -898.830     683.422
  H      784.341    -897.590     682.518
  H      785.127    -899.120     683.051
  H      780.679    -890.889     680.930
  H      780.867    -891.774     682.425
  H      780.372    -892.609     680.972

 3  4  5  6  7  8  9  10  11  12  13  24  27  28  29  30  32 0
 6-311+G(2d,p)
 ****
 34  35 0
 6-311+G(2d,p)
 ****
 1  2  14  15  16  17  18  19  20  21  22  23  25  26 0
 3-21G
 ****
 31  33  36  37  38  39  40  41  42  43  44  45  46 0
 3-21G
 ****


