%nproc=1
%NoSave
%Mem=1900MB
#P OB98/GEN NMR

erre ene a

0 1
  C       36.574     -74.359     -61.665
  O       37.784     -73.928     -62.256
  P       39.186     -74.619     -61.899
  C       39.764     -72.724     -60.259
  O       39.554     -74.120     -60.418
  C       40.926     -72.441     -59.306
  O       40.622     -72.989     -57.993
  C       42.275     -73.024     -59.751
  O       43.277     -72.101     -59.308
  C       42.351     -74.314     -58.957
  O       43.676     -74.820     -58.856
  C       41.703     -73.878     -57.635
  N       41.243     -75.019     -56.849
  C       42.177     -75.613     -55.997
  O       43.347     -75.224     -55.989
  N       41.781     -76.669     -55.214
  C       40.587     -77.154     -55.351
  N       40.250     -78.196     -54.545
  C       39.611     -76.638     -56.329
  C       39.996     -75.570     -57.028
  O       40.265     -74.429     -62.911
  O       38.800     -76.154     -61.659
  H       43.694     -75.498     -58.146
  H       38.662     -76.614     -62.524
  H       38.648     -77.109     -56.448
  H       39.348     -75.120     -57.769
  H       42.414     -73.304     -57.028
  H       41.736     -75.082     -59.445
  H       42.348     -73.186     -60.829
  H       41.009     -71.352     -59.190
  H       40.943     -78.510     -53.879
  H       38.852     -72.289     -59.839
  H       39.322     -78.594     -54.514
  H       39.938     -72.257     -61.235
  P       44.004     -71.106     -60.331
  C       46.090     -72.574     -60.547
  O       44.991     -71.995     -61.226
  O       44.633     -69.904     -59.705
  O       42.851     -70.689     -61.363
  H       43.133     -69.898     -61.862
  H       46.519     -73.364     -61.172
  H       45.779     -73.007     -59.593
  H       46.852     -71.812     -60.368
  H       35.764     -73.768     -62.039
  H       36.636     -74.247     -60.603
  H       36.406     -75.388     -61.906

 3  4  5  6  7  8  9  10  11  12  13  23  27  28  29  30  32 0
 6-311+G(2d,p)
 ****
 34  35 0
 6-311+G(2d,p)
 ****
 1  2  14  15  16  17  18  19  20  21  22  24  25  26 0
 3-21G
 ****
 31  33  36  37  38  39  40  41  42  43  44  45  46 0
 3-21G
 ****


