%nproc=1
%NoSave
%Mem=1900MB
#P OB98/GEN NMR

erre ene a

0 1
  C     -127.979     -40.978    -115.494
  O     -128.979     -41.011    -114.491
  P     -129.761     -39.657    -114.145
  C     -131.689     -40.039    -115.849
  O     -130.594     -39.229    -115.448
  C     -132.983     -39.221    -115.858
  O     -132.851     -38.120    -116.807
  C     -134.228     -40.025    -116.260
  O     -135.342     -39.497    -115.525
  C     -134.380     -39.681    -117.730
  O     -135.684     -39.929    -118.232
  C     -133.979     -38.201    -117.702
  N     -133.656     -37.676    -119.027
  C     -134.718     -37.306    -119.847
  O     -135.901     -37.398    -119.520
  N     -134.383     -36.875    -121.101
  C     -133.128     -36.862    -121.639
  O     -132.908     -36.578    -122.810
  C     -132.045     -37.265    -120.730
  C     -132.351     -37.644    -119.486
  O     -128.590     -38.568    -114.067
  O     -130.565     -39.705    -112.887
  H     -135.717     -39.588    -119.144
  H     -128.354     -38.387    -113.139
  H     -135.141     -36.593    -121.706
  H     -131.033     -37.247    -121.115
  H     -131.573     -37.964    -118.799
  H     -134.783     -37.600    -117.259
  H     -133.672     -40.276    -118.319
  H     -134.132     -41.101    -116.085
  H     -133.122     -38.778    -114.863
  H     -131.795     -40.870    -115.150
  H     -131.491     -40.459    -116.842
  P     -136.570     -40.483    -115.208
  C     -136.241     -40.335    -112.619
  O     -136.275     -41.140    -113.777
  O     -136.276     -41.669    -116.246
  O     -137.912     -39.850    -115.389
  H     -135.336     -41.913    -116.278
  H     -136.958     -39.510    -112.677
  H     -135.235     -39.930    -112.488
  H     -136.488     -40.954    -111.751
  H     -127.554     -41.954    -115.606
  H     -127.214     -40.286    -115.212
  H     -128.414     -40.670    -116.422

 3  4  5  6  7  8  9  10  11  12  13  23  28  29  30  31  32 0
 6-311+G(2d,p)
 ****
 33  34 0
 6-311+G(2d,p)
 ****
 1  2  14  15  16  17  18  19  20  21  22  24  25  26 0
 3-21G
 ****
 27  35  36  37  38  39  40  41  42  43  44  45 0
 3-21G
 ****


