%nproc=1
%NoSave
%Mem=1900MB
#P OB98/GEN NMR

erre ene a

0 1
  C      -99.251      12.164       5.053
  O      -99.274      12.825       3.798
  P     -100.619      12.897       2.923
  C     -102.045      11.140       1.674
  O     -100.842      11.404       2.384
  C     -101.875       9.893       0.810
  O     -100.977      10.179      -0.280
  C     -101.274       8.697       1.540
  O     -102.236       8.070       2.373
  C     -100.779       7.862       0.365
  O     -101.867       7.136      -0.226
  C     -100.286       8.951      -0.612
  N      -98.838       9.136      -0.573
  C      -98.059       8.021      -0.898
  O      -98.579       6.951      -1.210
  N      -96.692       8.152      -0.899
  C      -96.149       9.288      -0.580
  N      -94.793       9.378      -0.664
  C      -96.931      10.470      -0.176
  C      -98.256      10.326      -0.200
  O     -100.624      13.949       1.866
  O     -101.789      13.055       3.998
  H     -101.476       6.531      -0.886
  H     -101.984      13.996       4.235
  H      -96.433      11.390       0.094
  H      -98.902      11.154       0.063
  H     -100.582       8.702      -1.638
  H     -100.002       7.139       0.638
  H     -100.420       9.013       2.153
  H     -102.855       9.630       0.389
  H      -94.313       8.605      -1.110
  H     -102.263      11.997       1.027
  H      -94.327      10.277      -0.715
  H     -102.867      11.018       2.387
  P     -101.720       7.427       3.748
  C      -99.991       5.587       4.344
  O     -100.761       6.208       3.329
  O     -103.028       6.722       4.339
  O     -101.126       8.409       4.703
  H     -103.424       7.273       5.041
  H      -99.590       4.651       3.948
  H     -100.607       5.367       5.219
  H      -99.156       6.234       4.626
  H      -98.269      12.228       5.472
  H      -99.515      11.136       4.919
  H      -99.952      12.629       5.714

 3  4  5  6  7  8  9  10  11  12  13  23  27  28  29  30  32 0
 6-311+G(2d,p)
 ****
 34  35 0
 6-311+G(2d,p)
 ****
 1  2  14  15  16  17  18  19  20  21  22  24  25  26 0
 3-21G
 ****
 31  33  36  37  38  39  40  41  42  43  44  45  46 0
 3-21G
 ****


