%nproc=1
%NoSave
%Mem=1900MB
#P OB98/GEN NMR

erre ene a

0 1
  C     -303.529     190.296    -116.842
  O     -303.723     188.963    -117.331
  P     -303.531     188.744    -118.911
  C     -302.364     186.446    -118.584
  O     -303.428     187.173    -119.189
  C     -302.895     185.199    -117.886
  O     -303.793     185.531    -116.798
  C     -303.713     184.292    -118.809
  O     -302.868     183.567    -119.684
  C     -304.454     183.430    -117.783
  O     -303.597     182.399    -117.282
  C     -304.751     184.451    -116.667
  N     -309.531     183.949    -114.908
  C     -308.397     183.248    -114.664
  N     -307.164     183.440    -115.174
  C     -307.155     184.496    -116.011
  C     -308.226     185.307    -116.349
  C     -309.462     185.003    -115.759
  N     -310.618     185.705    -116.019
  N     -307.836     186.290    -117.235
  C     -306.550     186.059    -117.444
  N     -306.094     184.991    -116.721
  O     -302.048     189.281    -119.181
  O     -304.541     189.469    -119.740
  H     -304.071     181.944    -116.557
  H     -302.078     190.129    -119.667
  H     -308.502     182.418    -113.970
  H     -305.916     186.632    -118.119
  H     -304.619     184.018    -115.667
  H     -305.344     182.954    -118.196
  H     -304.433     184.889    -119.385
  H     -302.049     184.637    -117.480
  H     -301.837     187.076    -117.856
  H     -311.480     185.368    -115.612
  H     -310.605     186.438    -116.716
  H     -301.630     186.185    -119.357
  P     -303.207     183.612    -121.254
  C     -300.953     183.417    -122.461
  O     -302.057     182.711    -121.917
  O     -302.768     185.095    -121.639
  O     -304.610     183.235    -121.606
  H     -301.895     185.325    -121.257
  H     -300.231     182.685    -122.850
  H     -300.466     184.013    -121.692
  H     -301.285     184.050    -123.287
  H     -303.684     190.314    -115.783
  H     -304.227     190.955    -117.315
  H     -302.532     190.615    -117.062

 3  4  5  6  7  8  9  10  11  12  22  25  29  30  31  32 0
 6-311+G(2d,p)
 ****
 33  36  37 0
 6-311+G(2d,p)
 ****
 1  2  13  14  15  16  17  18  19  20  21  23  24  26 0
 3-21G
 ****
 27  28  34  35  38  39  40  41  42  43  44  45  46  47  48 0
 3-21G
 ****


