%nproc=1
%NoSave
%Mem=1900MB
#P OB98/GEN NMR

erre ene a

0 1
  C      154.456    -490.305     746.747
  O      155.663    -490.113     747.489
  P      156.677    -488.911     747.166
  C      158.388    -490.083     745.645
  O      157.365    -489.106     745.713
  C      159.665    -489.582     744.940
  O      160.739    -490.567     745.049
  C      159.495    -489.263     743.439
  O      160.407    -488.192     743.157
  C      159.966    -490.559     742.787
  O      160.302    -490.401     741.413
  C      161.132    -490.933     743.701
  N      164.376    -494.348     741.724
  C      164.415    -492.994     741.747
  N      163.524    -492.163     742.318
  C      162.560    -492.849     742.945
  C      162.395    -494.224     743.000
  C      163.365    -494.999     742.344
  N      163.313    -496.369     742.283
  N      161.267    -494.543     743.729
  C      160.740    -493.400     744.070
  N      161.485    -492.342     743.637
  O      157.665    -488.617     748.262
  O      155.716    -487.632     746.952
  H      159.580    -489.906     740.993
  H      156.086    -486.871     747.432
  H      165.259    -492.548     741.233
  H      159.799    -493.275     744.628
  H      162.028    -490.345     743.451
  H      159.155    -491.297     742.850
  H      158.472    -488.983     743.173
  H      160.006    -488.695     745.480
  H      158.012    -490.987     745.115
  H      164.001    -496.820     741.686
  H      162.494    -496.850     742.621
  H      158.642    -490.405     746.683
  P      159.963    -486.665     743.330
  C      158.732    -486.490     741.089
  O      158.610    -486.473     742.506
  O      161.043    -485.678     742.991
  O      159.501    -486.519     744.862
  H      159.512    -485.593     745.125
  H      159.141    -485.530     740.737
  H      157.733    -486.636     740.644
  H      159.375    -487.307     740.759
  H      153.935    -491.159     747.128
  H      154.693    -490.462     745.715
  H      153.837    -489.438     746.842

 3  4  5  6  7  8  9  10  11  12  22  25  29  30  31  32 0
 6-311+G(2d,p)
 ****
 33  36  37 0
 6-311+G(2d,p)
 ****
 1  2  13  14  15  16  17  18  19  20  21  23  24  26 0
 3-21G
 ****
 27  28  34  35  38  39  40  41  42  43  44  45  46  47  48 0
 3-21G
 ****


