%nproc=1
%NoSave
%Mem=1900MB
#P OB98/GEN NMR

erre ene a

0 1
  C     -327.137     -65.681    -340.634
  O     -326.895     -64.585    -339.764
  P     -327.851     -63.295    -339.773
  C     -325.857     -61.806    -340.422
  O     -327.151     -62.270    -340.788
  C     -325.157     -61.191    -341.629
  O     -324.872     -62.246    -342.579
  C     -325.965     -60.157    -342.416
  O     -325.907     -58.840    -341.887
  C     -325.246     -60.194    -343.755
  O     -324.028     -59.431    -343.674
  C     -324.927     -61.683    -343.912
  N     -325.777     -65.645    -347.036
  C     -324.666     -65.222    -346.389
  N     -324.518     -64.149    -345.589
  C     -325.682     -63.499    -345.451
  C     -326.897     -63.808    -346.038
  C     -326.921     -64.943    -346.867
  N     -328.063     -65.381    -347.506
  N     -327.868     -62.895    -345.670
  C     -327.247     -62.061    -344.862
  N     -325.930     -62.385    -344.691
  O     -328.173     -62.756    -338.423
  O     -329.148     -63.770    -340.578
  H     -324.280     -58.513    -343.449
  H     -329.888     -63.155    -340.414
  H     -323.778     -65.834    -346.539
  H     -327.708     -61.207    -344.387
  H     -323.951     -61.858    -344.383
  H     -325.837     -59.762    -344.571
  H     -327.003     -60.483    -342.554
  H     -324.201     -60.768    -341.299
  H     -325.274     -62.664    -340.067
  H     -328.018     -66.275    -347.972
  H     -328.943     -64.956    -347.253
  H     -325.941     -61.085    -339.604
  P     -326.906     -57.750    -342.524
  C     -325.084     -56.041    -343.304
  O     -326.059     -56.998    -343.656
  O     -327.574     -56.868    -341.530
  O     -327.926     -58.655    -343.363
  H     -327.541     -59.107    -344.131
  H     -324.515     -55.768    -344.197
  H     -324.391     -56.442    -342.560
  H     -325.566     -55.143    -342.908
  H     -326.394     -66.434    -340.474
  H     -327.094     -65.347    -341.649
  H     -328.106     -66.088    -340.434

 3  4  5  6  7  8  9  10  11  12  22  25  29  30  31  32 0
 6-311+G(2d,p)
 ****
 33  36  37 0
 6-311+G(2d,p)
 ****
 1  2  13  14  15  16  17  18  19  20  21  23  24  26 0
 3-21G
 ****
 27  28  34  35  38  39  40  41  42  43  44  45  46  47  48 0
 3-21G
 ****


