%nproc=1
%NoSave
%Mem=1900MB
#P OB98/GEN NMR

erre ene a

0 1
  C      617.822    -650.887    -580.130
  O      619.141    -651.416    -580.210
  P      620.328    -650.393    -580.567
  C      619.990    -650.670    -583.132
  O      620.861    -650.842    -582.023
  C      620.461    -651.495    -584.336
  O      621.664    -650.931    -584.878
  C      620.815    -652.943    -583.980
  O      619.665    -653.780    -583.933
  C      621.688    -653.310    -585.170
  O      620.850    -653.612    -586.316
  C      622.462    -652.014    -585.421
  N      627.309    -653.581    -585.872
  C      626.210    -653.814    -586.628
  N      624.962    -653.367    -586.442
  C      624.871    -652.642    -585.312
  C      625.897    -652.349    -584.423
  C      627.180    -652.841    -584.756
  N      628.294    -652.582    -583.991
  N      625.424    -651.576    -583.388
  C      624.165    -651.398    -583.632
  N      623.773    -652.012    -584.801
  O      621.511    -650.845    -579.590
  O      619.992    -648.947    -580.412
  H      620.497    -654.511    -586.169
  H      622.132    -650.104    -579.452
  H      626.371    -654.441    -587.506
  H      623.472    -650.812    -583.023
  H      622.602    -651.804    -586.486
  H      622.307    -654.193    -584.994
  H      621.418    -653.006    -583.059
  H      619.677    -651.455    -585.101
  H      619.966    -649.607    -583.423
  H      629.191    -652.805    -584.380
  H      628.229    -651.867    -583.274
  H      618.973    -650.965    -582.844
  P      619.467    -654.647    -582.587
  C      621.469    -656.262    -582.917
  O      620.071    -656.092    -582.939
  O      617.883    -654.890    -582.556
  O      619.973    -653.988    -581.355
  H      617.594    -655.036    -581.634
  H      621.702    -657.323    -582.848
  H      621.926    -655.758    -582.057
  H      621.906    -655.868    -583.839
  H      617.137    -651.672    -579.887
  H      617.552    -650.457    -581.072
  H      617.785    -650.134    -579.371

 3  4  5  6  7  8  9  10  11  12  22  25  29  30  31  32 0
 6-311+G(2d,p)
 ****
 33  36  37 0
 6-311+G(2d,p)
 ****
 1  2  13  14  15  16  17  18  19  20  21  23  24  26 0
 3-21G
 ****
 27  28  34  35  38  39  40  41  42  43  44  45  46  47  48 0
 3-21G
 ****


