%nproc=1
%NoSave
%Mem=1900MB
#P OB98/GEN NMR

erre ene a

0 1
  C       22.625    -479.903      -2.084
  O       23.519    -479.619      -3.140
  H       21.838    -480.564      -2.460
  H       22.166    -478.983      -1.715
  H       23.154    -480.408      -1.272
  P       24.693    -478.567      -2.822
  C       23.328    -476.499      -3.644
  O       24.425    -477.377      -3.868
  C       23.276    -475.438      -4.737
  O       24.410    -474.545      -4.637
  C       23.328    -475.991      -6.161
  O       22.094    -476.531      -6.599
  C       23.696    -474.727      -6.917
  O       22.542    -473.870      -7.012
  C       24.765    -474.127      -5.981
  N       26.125    -474.557      -6.316
  C       26.853    -473.733      -7.180
  O       26.357    -472.701      -7.629
  N       28.121    -474.114      -7.546
  C       28.632    -475.211      -7.075
  N       29.889    -475.535      -7.474
  C       27.909    -476.103      -6.150
  C       26.675    -475.720      -5.817
  O       25.997    -479.272      -3.422
  O       24.817    -478.137      -1.400
  H       22.779    -473.157      -7.629
  H       26.759    -478.642      -3.408
  H       28.370    -477.012      -5.794
  H       26.082    -476.323      -5.140
  H       24.734    -473.030      -6.002
  H       24.036    -474.917      -7.935
  H       24.138    -476.724      -6.278
  H       22.372    -474.835      -4.577
  H       30.339    -474.933      -8.154
  H       23.464    -476.024      -2.665
  H       30.312    -476.435      -7.285
  H       22.390    -477.064      -3.638
  P       22.123    -477.994      -7.263
  C       23.109    -477.162      -9.526
  O       22.022    -477.783      -8.849
  O       20.693    -478.599      -6.877
  O       23.245    -478.870      -6.803
  H       20.753    -479.563      -6.727
  H       22.887    -477.096     -10.571
  H       23.996    -477.744      -9.386
  H       23.261    -476.179      -9.131

 6  7  8  9  10  11  12  13  14  15  16  26  30  31  32  33  35 0
 6-311+G(2d,p)
 ****
 37  38 0
 6-311+G(2d,p)
 ****
 1  2  3  4  5  17  18  19  20  21  22  23  24  25 0
 3-21G
 ****
 27  28  29  34  36  39  40  41  42  43  44  45  46 0
 3-21G
 ****


