%nproc=1
%NoSave
%Mem=1900MB
#P OB98/GEN NMR

erre ene a

0 1
  C     -893.493    -418.332    -485.721
  O     -893.763    -417.753    -484.460
  H     -892.573    -418.922    -485.642
  H     -893.343    -417.558    -486.479
  H     -894.303    -418.998    -486.017
  P     -895.003    -416.744    -484.334
  C     -896.403    -417.774    -482.424
  O     -896.243    -417.609    -483.826
  C     -896.233    -419.252    -482.036
  O     -894.853    -419.647    -482.245
  C     -896.573    -419.539    -480.555
  O     -897.063    -420.883    -480.487
  C     -895.203    -419.437    -479.913
  O     -895.193    -419.987    -478.616
  C     -894.343    -420.129    -480.977
  N     -892.933    -419.853    -480.816
  C     -892.053    -420.842    -481.276
  O     -892.483    -421.873    -481.774
  N     -890.703    -420.638    -481.129
  C     -890.263    -419.576    -480.519
  N     -888.913    -419.448    -480.398
  C     -891.163    -418.535    -479.966
  C     -892.473    -418.737    -480.149
  O     -895.273    -415.898    -485.537
  O     -894.633    -415.841    -483.062
  H     -895.463    -420.934    -478.637
  H     -894.343    -414.957    -483.352
  H     -890.753    -417.687    -479.447
  H     -893.213    -418.031    -479.779
  H     -894.493    -421.219    -480.954
  H     -894.903    -418.390    -479.810
  H     -897.313    -418.848    -480.139
  H     -896.853    -419.865    -482.703
  H     -888.343    -420.181    -480.778
  H     -897.403    -417.425    -482.152
  H     -888.473    -418.673    -479.925
  H     -895.663    -417.171    -481.891
  P     -898.543    -421.296    -480.968
  C     -898.963    -423.336    -482.484
  O     -898.453    -422.001    -482.399
  O     -899.533    -420.185    -480.899
  O     -898.973    -422.488    -479.985
  H     -899.943    -422.469    -479.871
  H     -898.848    -423.699    -483.484
  H     -900.000    -423.339    -482.220
  H     -898.422    -423.968    -481.811

 6  7  8  9  10  11  12  13  14  15  16  26  30  31  32  33  35 0
 6-311+G(2d,p)
 ****
 37  38 0
 6-311+G(2d,p)
 ****
 1  2  3  4  5  17  18  19  20  21  22  23  24  25 0
 3-21G
 ****
 27  28  29  34  36  39  40  41  42  43  44  45  46 0
 3-21G
 ****


