%nproc=1
%NoSave
%Mem=1900MB
#P OB98/GEN NMR

erre ene a

0 1
  C     -217.679     225.336     156.322
  O     -216.956     224.184     155.926
  P     -215.381     224.158     156.235
  C     -215.546     222.136     157.869
  O     -215.202     223.505     157.690
  C     -215.441     221.756     159.345
  O     -216.344     222.561     160.129
  C     -215.806     220.310     159.655
  O     -214.765     219.425     159.276
  C     -216.048     220.402     161.158
  O     -214.796     220.409     161.861
  C     -216.731     221.775     161.290
  N     -220.834     221.666     164.356
  C     -219.511     221.732     164.619
  N     -218.478     221.733     163.752
  C     -218.923     221.667     162.486
  C     -220.237     221.573     162.061
  C     -221.224     221.581     163.059
  N     -222.574     221.506     162.784
  N     -220.306     221.498     160.686
  C     -219.056     221.558     160.284
  N     -218.182     221.673     161.334
  O     -215.034     225.698     156.478
  O     -214.536     223.556     155.158
  H     -214.362     221.266     161.674
  H     -214.135     225.910     156.159
  H     -219.244     221.790     165.673
  H     -218.729     221.526     159.255
  H     -216.411     222.322     162.184
  H     -216.643     219.568     161.550
  H     -216.735     220.033     159.144
  H     -214.414     221.968     159.677
  H     -214.857     221.510     157.291
  H     -223.203     221.364     163.562
  H     -222.855     221.300     161.835
  H     -216.559     221.972     157.494
  P     -215.042     218.461     158.022
  C     -212.692     217.908     157.137
  O     -213.815     218.767     157.028
  O     -216.265     219.201     157.309
  O     -215.257     217.028     158.369
  H     -216.102     220.155     157.196
  H     -211.966     218.190     156.376
  H     -212.993     216.868     156.974
  H     -212.234     218.013     158.122
  H     -218.709     225.219     156.057
  H     -217.279     226.196     155.827
  H     -217.596     225.463     157.381

 3  4  5  6  7  8  9  10  11  12  22  25  29  30  31  32 0
 6-311+G(2d,p)
 ****
 33  36  37 0
 6-311+G(2d,p)
 ****
 1  2  13  14  15  16  17  18  19  20  21  23  24  26 0
 3-21G
 ****
 27  28  34  35  38  39  40  41  42  43  44  45  46  47  48 0
 3-21G
 ****


