%nproc=1
%NoSave
%Mem=1900MB
#P OB98/GEN NMR

erre ene a

0 1
  C     -111.720      22.605     356.982
  O     -112.992      22.238     357.505
  P     -114.145      21.504     356.682
  C     -114.996      20.184     358.787
  O     -115.292      21.048     357.695
  C     -116.254      19.896     359.619
  O     -116.647      21.119     360.311
  C     -117.447      19.466     358.754
  O     -118.201      18.392     359.310
  C     -118.180      20.772     358.510
  O     -119.533      20.602     358.114
  C     -117.953      21.515     359.827
  N     -120.967      25.629     359.608
  C     -121.312      24.288     359.601
  N     -122.628      23.998     359.503
  N     -120.439      23.321     359.662
  C     -119.158      23.740     359.674
  C     -118.691      25.036     359.670
  C     -119.665      26.107     359.657
  O     -119.417      27.309     359.681
  N     -117.320      25.077     359.701
  C     -116.956      23.810     359.699
  N     -118.040      22.960     359.693
  O     -113.693      20.495     355.678
  O     -114.854      22.707     355.865
  H     -119.539      20.139     357.257
  H     -115.170      22.318     355.022
  H     -121.686      26.337     359.586
  H     -115.932      23.454     359.717
  H     -118.688      21.240     360.584
  H     -117.672      21.292     357.685
  H     -123.339      24.697     359.331
  H     -117.103      19.064     357.793
  H     -122.852      23.033     359.273
  H     -116.014      19.140     360.377
  H     -114.257      20.712     359.400
  H     -114.536      19.260     358.436
  P     -117.931      16.824     359.204
  C     -119.264      16.205     361.311
  O     -119.146      16.050     359.909
  O     -116.710      16.544     360.198
  O     -117.604      16.337     357.830
  H     -115.948      16.189     359.691
  H     -119.939      15.437     361.694
  H     -119.677      17.188     361.538
  H     -118.289      16.093     361.794
  H     -111.144      23.081     357.747
  H     -111.853      23.280     356.163
  H     -111.208      21.729     356.643

 3  4  5  6  7  8  9  10  11  12  23  26  30  31 0
 6-311+G(2d,p)
 ****
 33  35  36  37  38 0
 6-311+G(2d,p)
 ****
 1  2  13  14  15  16  17  18  19  20  21  22  24  25 0
 3-21G
 ****
 27  28  29  32  34  39  40  41  42  43  44  45  46  47  48  49 0
 3-21G
 ****


