%nproc=1
%NoSave
%Mem=1900MB
#P OB98/GEN NMR

erre ene a

0 1
  C      -71.735    -321.994     275.580
  O      -72.638    -321.016     276.112
  P      -72.380    -319.443     275.953
  C      -72.393    -318.989     273.415
  O      -73.133    -318.923     274.633
  C      -72.055    -317.596     272.880
  O      -71.066    -317.674     271.836
  C      -73.240    -316.843     272.280
  O      -74.050    -316.292     273.301
  C      -72.532    -315.821     271.398
  O      -72.079    -314.705     272.182
  C      -71.332    -316.631     270.880
  N      -70.322    -316.122     265.891
  C      -69.925    -315.416     266.970
  N      -70.238    -315.609     268.269
  C      -71.039    -316.680     268.407
  C      -71.531    -317.497     267.395
  C      -71.143    -317.183     266.085
  N      -71.563    -317.898     264.985
  N      -72.343    -318.482     267.918
  C      -72.327    -318.274     269.220
  N      -71.551    -317.200     269.564
  O      -70.940    -319.043     276.031
  O      -73.215    -318.768     277.143
  H      -71.534    -314.140     271.598
  H      -72.798    -317.927     277.403
  H      -69.260    -314.578     266.763
  H      -72.853    -318.873     269.953
  H      -70.425    -316.016     270.821
  H      -73.173    -315.425     270.606
  H      -73.831    -317.518     271.651
  H      -71.615    -317.019     273.705
  H      -72.994    -319.533     272.675
  H      -71.270    -317.589     264.073
  H      -72.214    -318.663     265.115
  H      -71.473    -319.553     273.598
  P      -75.620    -316.103     273.068
  C      -76.365    -318.241     274.275
  O      -76.371    -316.826     274.286
  O      -76.121    -316.464     271.713
  O      -75.868    -314.547     273.384
  H      -76.621    -314.229     272.850
  H      -77.130    -318.608     273.590
  H      -76.588    -318.597     275.284
  H      -75.385    -318.623     273.975
  H      -72.101    -322.975     275.801
  H      -70.769    -321.866     276.022
  H      -71.661    -321.871     274.520

 3  4  5  6  7  8  9  10  11  12  22  25  29  30  31  32 0
 6-311+G(2d,p)
 ****
 33  36  37 0
 6-311+G(2d,p)
 ****
 1  2  13  14  15  16  17  18  19  20  21  23  24  26 0
 3-21G
 ****
 27  28  34  35  38  39  40  41  42  43  44  45  46  47  48 0
 3-21G
 ****


