%nproc=1
%NoSave
%Mem=1900MB
#P OB98/GEN NMR

erre ene a

0 1
  C      288.205     318.285    -280.778
  O      288.458     318.270    -279.390
  H      288.913     317.617    -281.273
  H      288.348     319.296    -281.162
  H      287.187     317.944    -280.996
  P      287.313     318.849    -278.427
  C      285.730     316.801    -278.637
  O      286.562     317.579    -277.789
  C      284.602     316.154    -277.830
  O      283.621     315.605    -278.764
  C      285.066     315.013    -276.909
  O      284.290     315.048    -275.705
  C      284.668     313.770    -277.687
  O      284.505     312.633    -276.849
  C      283.375     314.250    -278.345
  N      279.837     311.047    -279.907
  C      279.855     311.905    -278.823
  N      278.794     311.869    -277.992
  N      280.840     312.735    -278.578
  C      281.830     312.688    -279.503
  C      281.931     311.877    -280.609
  C      280.846     310.954    -280.862
  O      280.781     310.155    -281.793
  N      283.121     312.086    -281.261
  C      283.745     313.002    -280.534
  N      282.999     313.395    -279.455
  O      286.245     319.435    -279.468
  O      287.760     319.886    -277.450
  H      285.369     312.436    -276.430
  H      286.402     320.387    -279.603
  H      279.067     310.419    -280.042
  H      284.734     313.393    -280.731
  H      282.527     314.255    -277.644
  H      285.431     313.541    -278.442
  H      277.988     311.280    -278.131
  H      286.130     315.043    -276.665
  H      278.779     312.519    -277.215
  H      284.090     316.936    -277.255
  H      286.331     316.016    -279.107
  H      285.317     317.444    -279.423
  P      285.073     315.022    -274.300
  C      285.523     317.521    -273.746
  O      284.736     316.365    -273.496
  O      286.600     315.225    -274.742
  O      284.893     313.753    -273.535
  H      287.188     314.725    -274.148
  H      285.175     318.328    -273.136
  H      285.440     317.793    -274.778
  H      286.546     317.313    -273.513

 6  7  8  9  10  11  12  13  14  15  26  29  33  34 0
 6-311+G(2d,p)
 ****
 36  38  39  40  41 0
 6-311+G(2d,p)
 ****
 1  2  3  4  5  16  17  18  19  20  21  22  23  24  25 0
 3-21G
 ****
 27  28  30  31  32  35  37  42  43  44  45  46  47 0
 3-21G
 ****
 48  49 0
 3-21G
 ****


