%nproc=1
%NoSave
%Mem=1900MB
#P OB98/GEN NMR

erre ene a

0 1
  C      848.307     161.254    -607.096
  O      849.683     161.627    -606.966
  P      850.311     162.474    -608.167
  C      850.882     164.466    -606.586
  O      850.231     164.036    -607.778
  C      850.884     165.993    -606.522
  O      851.835     166.568    -607.445
  C      849.543     166.618    -606.893
  O      848.606     166.468    -605.838
  C      849.964     168.056    -607.163
  O      850.125     168.775    -605.929
  C      851.335     167.871    -607.831
  N      853.429     169.963    -612.016
  C      853.712     170.086    -610.702
  N      853.109     169.504    -609.651
  C      852.113     168.692    -610.062
  C      851.713     168.462    -611.368
  C      852.414     169.141    -612.382
  N      852.112     169.015    -613.716
  N      850.653     167.572    -611.391
  C      850.409     167.297    -610.133
  N      851.271     167.943    -609.291
  O      849.231     162.328    -609.339
  O      851.656     162.003    -608.599
  H      850.234     169.725    -606.154
  H      849.575     161.744    -610.041
  H      854.540     170.756    -610.464
  H      849.620     166.646    -609.783
  H      852.068     168.624    -607.506
  H      849.234     168.613    -607.771
  H      849.152     166.162    -607.802
  H      851.169     166.293    -605.505
  H      851.907     164.092    -606.563
  H      852.614     169.597    -614.371
  H      851.307     168.470    -613.993
  H      850.373     164.031    -605.727
  P      847.186     165.815    -606.197
  C      847.497     164.396    -604.079
  O      847.227     164.386    -605.461
  O      847.382     165.434    -607.737
  O      846.000     166.663    -605.882
  H      848.236     164.996    -607.890
  H      847.462     163.364    -603.703
  H      846.738     164.987    -603.552
  H      848.492     164.809    -603.891
  H      848.006     160.695    -606.235
  H      848.181     160.654    -607.973
  H      847.705     162.135    -607.178

 3  4  5  6  7  8  9  10  11  12  22  25  29  30  31  32 0
 6-311+G(2d,p)
 ****
 33  36  37 0
 6-311+G(2d,p)
 ****
 1  2  13  14  15  16  17  18  19  20  21  23  24  26 0
 3-21G
 ****
 27  28  34  35  38  39  40  41  42  43  44  45  46  47  48 0
 3-21G
 ****


