%nproc=1
%NoSave
%Mem=1900MB
#P OB98/GEN NMR

erre ene a

0 1
  C     -711.784    -378.382     477.689
  O     -711.700    -378.297     476.265
  P     -711.891    -379.635     475.414
  C     -713.909    -379.022     473.774
  O     -712.523    -379.278     473.975
  C     -714.060    -377.840     472.816
  O     -713.419    -376.655     473.347
  C     -713.449    -378.093     471.431
  O     -714.355    -378.768     470.565
  C     -713.086    -376.682     470.988
  O     -714.267    -376.011     470.513
  C     -712.589    -376.073     472.302
  N     -711.162    -376.253     472.672
  C     -710.159    -375.730     471.862
  O     -710.356    -375.086     470.839
  N     -708.867    -375.932     472.295
  C     -708.490    -376.466     473.495
  O     -707.327    -376.560     473.861
  C     -709.601    -376.871     474.388
  C     -710.860    -376.774     473.926
  O     -713.066    -380.403     476.164
  O     -710.652    -380.460     475.299
  H     -714.814    -375.819     471.296
  H     -712.742    -381.232     476.546
  H     -708.132    -375.627     471.699
  H     -709.359    -377.261     475.353
  H     -711.684    -377.061     474.578
  H     -712.771    -374.986     472.317
  H     -712.400    -376.709     470.149
  H     -712.511    -378.665     471.538
  H     -715.129    -377.625     472.711
  H     -714.381    -378.804     474.731
  H     -714.380    -379.930     473.365
  P     -714.079    -380.281     470.139
  C     -716.526    -380.780     470.749
  O     -715.514    -380.890     469.767
  O     -713.249    -381.091     471.088
  O     -713.380    -380.132     468.689
  H     -712.388    -380.178     468.787
  H     -717.478    -381.092     470.317
  H     -716.612    -379.740     471.086
  H     -716.300    -381.425     471.606
  H     -711.636    -377.411     478.114
  H     -711.030    -379.049     478.052
  H     -712.749    -378.750     477.968

 3  4  5  6  7  8  9  10  11  12  13  23  28  29  30  31  32 0
 6-311+G(2d,p)
 ****
 33  34 0
 6-311+G(2d,p)
 ****
 1  2  14  15  16  17  18  19  20  21  22  24  25  26  27 0
 3-21G
 ****
 35  36  37  38  39  40  41  42  43  44  45 0
 3-21G
 ****


