%nproc=1
%NoSave
%Mem=1900MB
#P OB98/GEN NMR

erre ene a

0 1
  C     -427.073    -372.381    -105.503
  O     -425.922    -371.801    -106.068
  P     -424.547    -371.701    -105.243
  C     -424.560    -374.276    -105.364
  O     -424.327    -373.136    -104.545
  C     -423.668    -375.443    -104.919
  O     -424.037    -376.639    -105.671
  C     -422.163    -375.171    -105.165
  O     -421.329    -375.361    -104.018
  C     -421.857    -376.072    -106.354
  O     -420.484    -376.378    -106.499
  C     -422.805    -377.245    -106.110
  N     -422.989    -378.083    -107.291
  C     -421.904    -378.855    -107.702
  O     -420.827    -378.895    -107.125
  N     -422.082    -379.567    -108.853
  C     -423.157    -379.496    -109.692
  O     -423.202    -380.087    -110.763
  C     -424.253    -378.627    -109.226
  C     -424.139    -377.991    -108.064
  O     -424.443    -370.545    -104.309
  O     -423.430    -371.717    -106.387
  H     -420.220    -376.931    -105.738
  H     -423.439    -372.510    -106.954
  H     -421.303    -380.135    -109.164
  H     -425.117    -378.543    -109.873
  H     -424.931    -377.341    -107.700
  H     -422.455    -377.887    -105.290
  H     -422.165    -375.536    -107.261
  H     -421.992    -374.125    -105.449
  H     -423.861    -375.631    -103.858
  H     -424.332    -374.026    -106.400
  H     -425.617    -374.557    -105.317
  P     -419.801    -374.915    -103.914
  C     -420.679    -372.587    -103.143
  O     -419.741    -373.312    -103.915
  O     -418.878    -375.579    -104.887
  O     -419.406    -375.296    -102.408
  H     -418.450    -375.502    -102.363
  H     -420.853    -371.623    -103.614
  H     -420.275    -372.435    -102.141
  H     -421.641    -373.115    -103.073
  H     -427.874    -372.349    -106.212
  H     -427.352    -371.837    -104.625
  H     -426.868    -373.398    -105.242

 3  4  5  6  7  8  9  10  11  12  13  23  28  29  30  31  32 0
 6-311+G(2d,p)
 ****
 33  34 0
 6-311+G(2d,p)
 ****
 1  2  14  15  16  17  18  19  20  21  22  24  25  26  27 0
 3-21G
 ****
 35  36  37  38  39  40  41  42  43  44  45 0
 3-21G
 ****


