%nproc=1
%NoSave
%Mem=1900MB
#P OB98/GEN NMR

erre ene a

0 1
  C       33.902     115.954    -129.518
  O       34.766     116.939    -128.984
  P       34.184     118.150    -128.117
  C       35.605     119.754    -129.524
  O       35.240     119.361    -128.206
  C       37.118     119.678    -129.728
  O       37.761     120.656    -128.861
  C       37.741     118.309    -129.412
  O       38.834     118.138    -130.321
  C       38.279     118.504    -128.002
  O       39.292     117.566    -127.661
  C       38.752     119.951    -128.089
  N       41.731     120.394    -123.954
  C       41.851     119.649    -125.073
  N       41.002     119.565    -126.120
  C       39.940     120.362    -125.930
  C       39.661     121.158    -124.830
  C       40.631     121.172    -123.810
  N       40.541     121.953    -122.678
  N       38.439     121.785    -124.980
  C       37.991     121.379    -126.151
  N       38.893     120.565    -126.788
  O       33.763     117.795    -126.730
  O       32.947     118.687    -128.976
  H       38.999     116.677    -127.940
  H       32.109     118.414    -128.556
  H       42.748     119.041    -125.143
  H       37.028     121.630    -126.576
  H       39.714     120.039    -128.609
  H       37.460     118.396    -127.281
  H       37.040     117.476    -129.485
  H       37.337     119.972    -130.758
  H       35.271     120.785    -129.671
  H       41.348     121.987    -122.077
  H       39.879     122.730    -122.670
  H       35.092     119.120    -130.256
  P       38.544     117.917    -131.883
  C       38.803     115.371    -131.729
  O       39.302     116.570    -132.299
  O       38.806     119.097    -132.754
  O       36.995     117.485    -131.919
  H       36.649     117.593    -132.821
  H       39.193     115.267    -130.707
  H       39.143     114.521    -132.329
  H       37.712     115.373    -131.698
  H       34.476     115.234    -130.063
  H       33.195     116.417    -130.174
  H       33.381     115.466    -128.721

 3  4  5  6  7  8  9  10  11  12  22  25  29  30  31  32 0
 6-311+G(2d,p)
 ****
 33  36  37 0
 6-311+G(2d,p)
 ****
 1  2  13  14  15  16  17  18  19  20  21  23  24  26 0
 3-21G
 ****
 27  28  34  35  38  39  40  41  42  43  44  45  46  47  48 0
 3-21G
 ****


