%nproc=1
%NoSave
%Mem=1900MB
#P OB98/GEN NMR

erre ene a

0 1
  C       60.791     525.371    -527.171
  O       59.751     525.567    -528.129
  P       59.525     524.670    -529.424
  C       61.526     525.696    -530.784
  O       60.120     525.440    -530.692
  C       62.018     525.856    -532.245
  O       61.780     524.613    -532.953
  C       61.208     526.930    -532.963
  O       61.578     528.304    -532.834
  C       61.147     526.460    -534.419
  O       62.182     527.009    -535.233
  C       61.315     524.933    -534.293
  N       58.378     522.732    -537.845
  C       59.540     523.460    -538.016
  N       59.945     523.682    -539.271
  N       60.225     523.954    -537.023
  C       59.660     523.735    -535.794
  C       58.496     523.045    -535.524
  C       57.767     522.460    -536.630
  O       56.738     521.792    -536.547
  N       58.218     523.053    -534.166
  C       59.187     523.762    -533.634
  N       60.099     524.193    -534.594
  O       58.159     524.079    -529.575
  O       60.566     523.442    -529.212
  H       63.018     526.975    -534.733
  H       60.151     522.644    -529.620
  H       57.891     522.358    -538.654
  H       59.293     523.993    -532.588
  H       62.084     524.559    -534.989
  H       60.198     526.752    -534.884
  H       59.402     523.438    -540.093
  H       60.184     526.871    -532.599
  H       60.682     524.399    -539.404
  H       63.094     526.020    -532.274
  H       62.037     524.862    -530.288
  H       61.784     526.606    -530.209
  P       61.062     529.299    -531.684
  C       59.105     530.219    -533.056
  O       60.311     530.526    -532.398
  O       62.415     529.981    -531.147
  O       60.303     528.653    -530.573
  H       62.244     530.408    -530.285
  H       58.848     531.038    -533.747
  H       58.298     530.116    -532.312
  H       59.189     529.289    -533.632
  H       60.713     526.112    -526.403
  H       61.742     525.457    -527.654
  H       60.698     524.397    -526.738

 3  4  5  6  7  8  9  10  11  12  23  26  30  31 0
 6-311+G(2d,p)
 ****
 33  35  36  37  38 0
 6-311+G(2d,p)
 ****
 1  2  13  14  15  16  17  18  19  20  21  22  24  25 0
 3-21G
 ****
 27  28  29  32  34  39  40  41  42  43  44  45  46  47  48  49 0
 3-21G
 ****


