%nproc=1
%NoSave
%Mem=1900MB
#P OB98/GEN NMR

erre ene a

0 1
  C      -32.339     375.934     423.559
  O      -32.158     375.222     424.772
  H      -31.777     375.430     422.771
  H      -31.968     376.959     423.650
  H      -33.394     375.942     423.287
  P      -32.650     375.914     426.133
  C      -30.485     377.322     426.137
  O      -31.307     376.413     426.865
  C      -29.375     377.899     427.014
  O      -28.629     378.904     426.294
  C      -29.875     378.599     428.269
  O      -30.481     377.755     429.219
  C      -28.665     379.421     428.676
  O      -27.709     378.660     429.408
  C      -28.077     379.810     427.288
  N      -28.333     381.201     426.951
  C      -27.222     381.955     426.598
  O      -26.069     381.514     426.594
  N      -27.458     383.269     426.289
  C      -28.675     383.893     426.337
  O      -28.822     385.081     426.062
  C      -29.811     383.060     426.748
  C      -29.594     381.764     427.028
  O      -33.537     375.072     427.003
  O      -33.327     377.279     425.652
  H      -27.459     377.898     428.853
  H      -33.883     377.678     426.367
  H      -26.664     383.832     426.022
  H      -30.787     383.521     426.806
  H      -30.415     381.122     427.331
  H      -26.988     379.644     427.274
  H      -28.934     380.283     429.288
  H      -30.658     379.318     427.971
  H      -28.678     377.084     427.266
  H      -31.128     378.141     425.778
  H      -30.060     376.807     425.268
  P      -31.996     377.906     429.708
  C      -31.421     379.382     431.790
  O      -31.992     378.182     431.291
  O      -32.980     376.925     429.167
  O      -32.383     379.361     429.115
  H      -33.333     379.330     428.869
  H      -31.504     379.400     432.857
  H      -31.940     380.222     431.378
  H      -30.389     379.428     431.512

 6  7  8  9  10  11  12  13  14  15  16  26  31  32  33  34  35 0
 6-311+G(2d,p)
 ****
 36  37 0
 6-311+G(2d,p)
 ****
 1  2  3  4  5  17  18  19  20  21  22  23  24  25 0
 3-21G
 ****
 27  28  29  30  38  39  40  41  42  43  44  45 0
 3-21G
 ****


