%nproc=1
%NoSave
%Mem=1900MB
#P OB98/GEN NMR

erre ene a

0 1
  C     1459.297     113.188     718.741
  O     1460.419     112.604     719.376
  H     1459.655     113.910     717.997
  H     1458.702     113.720     719.488
  H     1458.682     112.443     718.240
  P     1460.223     111.217     720.168
  C     1461.056     109.817     718.173
  O     1459.988     110.056     719.080
  C     1461.672     108.429     718.361
  O     1460.619     107.431     718.365
  C     1462.633     108.055     717.234
  O     1463.970     108.500     717.426
  C     1462.568     106.522     717.256
  O     1463.527     105.956     718.166
  C     1461.144     106.251     717.736
  N     1459.347     102.463     714.765
  C     1460.425     102.451     715.656
  N     1461.110     101.284     715.730
  N     1460.768     103.480     716.379
  C     1460.045     104.600     716.122
  C     1458.985     104.727     715.255
  C     1458.554     103.576     714.520
  O     1457.602     103.524     713.738
  N     1458.517     106.049     715.228
  C     1459.351     106.686     716.003
  N     1460.242     105.852     716.638
  O     1458.760     111.374     720.817
  O     1461.242     110.926     721.225
  H     1463.446     104.987     718.126
  H     1458.725     110.877     721.665
  H     1459.112     101.654     714.265
  H     1459.337     107.756     716.206
  H     1461.100     105.442     718.481
  H     1462.797     106.119     716.267
  H     1460.940     100.501     715.139
  H     1462.264     108.410     716.265
  H     1462.008     101.306     716.220
  H     1462.164     108.389     719.341
  H     1461.807     110.588     718.353
  H     1460.700     109.944     717.135
  P     1465.046     108.412     716.267
  C     1465.021     110.950     715.561
  O     1464.780     109.600     715.235
  O     1464.596     107.115     715.450
  O     1466.481     108.337     716.693
  H     1465.140     106.338     715.698
  H     1464.774     111.569     714.724
  H     1466.054     111.079     715.807
  H     1464.418     111.227     716.400

 6  7  8  9  10  11  12  13  14  15  26  29  33  34 0
 6-311+G(2d,p)
 ****
 36  38  39  40  41 0
 6-311+G(2d,p)
 ****
 1  2  3  4  5  16  17  18  19  20  21  22  23  24  25 0
 3-21G
 ****
 27  28  30  31  32  35  37  42  43  44  45  46  47 0
 3-21G
 ****
 48  49 0
 3-21G
 ****


