%nproc=1
%NoSave
%Mem=1900MB
#P OB98/GEN NMR

erre ene a

0 1
  C      -31.900     379.062    -236.598
  O      -31.818     379.560    -237.923
  P      -31.754     381.138    -238.201
  C      -29.305     381.447    -238.924
  O      -30.250     381.600    -237.871
  C      -28.155     382.435    -238.765
  O      -28.687     383.781    -238.760
  C      -27.373     382.247    -237.467
  O      -25.986     382.523    -237.711
  C      -27.915     383.328    -236.543
  O      -26.950     383.695    -235.545
  C      -28.267     384.431    -237.544
  N      -29.495     389.015    -235.589
  C      -28.312     388.498    -235.979
  N      -28.055     387.261    -236.468
  C      -29.192     386.556    -236.588
  C      -30.473     386.957    -236.233
  C      -30.605     388.254    -235.710
  N      -31.816     388.791    -235.327
  N      -31.382     385.947    -236.478
  C      -30.669     384.964    -236.981
  N      -29.340     385.286    -237.080
  O      -32.807     381.943    -237.523
  O      -31.832     381.272    -239.792
  H      -26.791     382.902    -234.991
  H      -32.369     382.046    -240.039
  H      -27.454     389.158    -235.885
  H      -31.061     384.002    -237.282
  H      -27.398     385.058    -237.780
  H      -28.805     382.952    -236.027
  H      -27.486     381.244    -237.038
  H      -27.488     382.345    -239.631
  H      -29.812     381.640    -239.878
  H      -31.834     389.762    -235.078
  H      -32.660     388.291    -235.578
  H      -28.935     380.415    -238.938
  P      -24.962     381.339    -237.346
  C      -24.208     380.784    -239.774
  O      -24.948     380.397    -238.642
  O      -25.285     380.699    -236.037
  O      -23.565     382.122    -237.377
  H      -23.609     382.915    -237.954
  H      -24.351     380.040    -240.562
  H      -23.141     380.835    -239.531
  H      -24.548     381.759    -240.143
  H      -31.933     377.993    -236.620
  H      -32.787     379.436    -236.130
  H      -31.042     379.381    -236.043

 3  4  5  6  7  8  9  10  11  12  22  25  29  30  31  32 0
 6-311+G(2d,p)
 ****
 33  36  37 0
 6-311+G(2d,p)
 ****
 1  2  13  14  15  16  17  18  19  20  21  23  24  26 0
 3-21G
 ****
 27  28  34  35  38  39  40  41  42  43  44  45  46  47  48 0
 3-21G
 ****


