%nproc=1
%NoSave
%Mem=1900MB
#P OB98/GEN NMR

erre ene a

0 1
  C     -176.337    -406.760    -460.091
  O     -175.658    -405.987    -459.117
  H     -175.829    -406.641    -461.054
  H     -177.370    -406.418    -460.192
  H     -176.323    -407.819    -459.812
  P     -176.320    -405.951    -457.653
  C     -175.080    -407.991    -456.594
  O     -176.273    -407.485    -457.180
  C     -175.346    -408.384    -455.144
  O     -176.335    -409.433    -455.074
  C     -174.121    -408.931    -454.411
  O     -173.233    -407.905    -453.980
  C     -174.788    -409.627    -453.244
  O     -175.218    -408.652    -452.273
  C     -176.005    -410.292    -453.946
  N     -175.731    -411.661    -454.391
  C     -175.723    -412.653    -453.403
  O     -175.920    -412.363    -452.220
  N     -175.449    -413.948    -453.774
  C     -175.222    -414.228    -455.019
  N     -174.942    -415.529    -455.326
  C     -175.239    -413.219    -456.091
  C     -175.498    -411.976    -455.712
  O     -177.879    -405.728    -457.946
  O     -175.727    -404.973    -456.689
  H     -175.549    -409.149    -451.504
  H     -178.394    -405.813    -457.107
  H     -175.029    -413.505    -457.117
  H     -175.521    -411.177    -456.450
  H     -176.877    -410.306    -453.276
  H     -174.130    -410.328    -452.721
  H     -173.594    -409.676    -455.010
  H     -175.762    -407.507    -454.623
  H     -174.878    -416.194    -454.561
  H     -174.313    -407.207    -456.643
  H     -174.578    -415.812    -456.231
  H     -174.729    -408.863    -457.151
  P     -171.723    -408.329    -453.631
  C     -170.497    -407.831    -455.879
  O     -171.046    -408.815    -455.011
  O     -171.904    -409.684    -452.808
  O     -170.939    -407.302    -452.864
  H     -171.263    -409.745    -452.076
  H     -170.088    -408.308    -456.745
  H     -169.724    -407.296    -455.368
  H     -171.266    -407.149    -456.176

 6  7  8  9  10  11  12  13  14  15  16  26  30  31  32  33  35 0
 6-311+G(2d,p)
 ****
 37  38 0
 6-311+G(2d,p)
 ****
 1  2  3  4  5  17  18  19  20  21  22  23  24  25 0
 3-21G
 ****
 27  28  29  34  36  39  40  41  42  43  44  45  46 0
 3-21G
 ****


