%nproc=1
%NoSave
%Mem=1900MB
#P OB98/GEN NMR

erre ene a

0 1
  C      654.469     211.858     635.814
  O      655.849     211.654     635.529
  P      656.249     210.869     634.182
  C      657.408     213.035     633.391
  O      656.536     211.962     633.039
  C      658.044     213.638     632.133
  O      658.888     212.689     631.456
  C      657.035     214.083     631.099
  O      656.394     215.290     631.498
  C      657.906     214.196     629.852
  O      658.614     215.452     629.831
  C      658.906     213.038     630.064
  N      658.620     211.884     629.212
  C      659.652     211.471     628.366
  O      660.714     212.091     628.330
  N      659.447     210.366     627.573
  C      658.314     209.744     627.613
  N      658.164     208.660     626.806
  C      657.188     210.160     628.484
  C      657.415     211.224     629.245
  O      655.342     209.756     633.788
  O      657.724     210.329     634.516
  H      657.946     216.133     630.046
  H      657.868     209.496     634.025
  H      656.268     209.604     628.494
  H      656.641     211.601     629.911
  H      659.928     213.370     629.831
  H      657.313     214.144     628.937
  H      656.281     213.303     630.950
  H      658.660     214.492     632.448
  H      658.941     208.408     626.211
  H      658.179     212.669     634.066
  H      657.336     208.076     626.808
  H      656.832     213.784     633.938
  P      654.845     215.469     631.120
  C      654.665     216.347     633.553
  O      654.032     215.670     632.479
  O      654.422     213.998     630.640
  O      654.578     216.475     630.056
  H      653.754     214.063     629.936
  H      653.891     216.669     634.265
  H      655.218     217.218     633.207
  H      655.347     215.661     634.065
  H      654.370     212.391     636.737
  H      653.978     210.911     635.895
  H      654.022     212.426     635.025

 3  4  5  6  7  8  9  10  11  12  13  23  27  28  29  30  32 0
 6-311+G(2d,p)
 ****
 34  35 0
 6-311+G(2d,p)
 ****
 1  2  14  15  16  17  18  19  20  21  22  24  25  26 0
 3-21G
 ****
 31  33  36  37  38  39  40  41  42  43  44  45  46 0
 3-21G
 ****


