%nproc=1
%NoSave
%Mem=1900MB
#P OB98/GEN NMR

erre ene a

0 1
  C       19.864    -347.359     537.526
  O       19.994    -348.723     537.880
  P       18.690    -349.617     538.135
  C       16.849    -349.711     539.987
  O       18.070    -349.146     539.544
  C       16.738    -349.642     541.518
  O       17.694    -350.575     542.067
  C       17.065    -348.280     542.122
  O       16.528    -348.233     543.449
  C       18.578    -348.334     542.194
  O       19.115    -347.397     543.129
  C       18.850    -349.824     542.526
  N       20.074    -350.318     541.864
  C       21.256    -349.628     542.121
  O       21.319    -348.693     542.922
  N       22.335    -349.983     541.377
  C       22.325    -350.917     540.368
  O       23.195    -351.012     539.514
  C       21.124    -351.772     540.303
  C       20.051    -351.421     541.025
  O       19.307    -351.062     538.454
  O       17.726    -349.659     537.002
  H       18.702    -347.596     543.999
  H       19.297    -351.610     537.641
  H       23.151    -349.395     541.455
  H       21.132    -352.617     539.631
  H       19.148    -352.004     540.964
  H       18.970    -349.978     543.614
  H       18.992    -348.094     541.210
  H       16.711    -347.425     541.537
  H       15.729    -349.974     541.810
  H       16.785    -350.741     539.633
  H       16.014    -349.174     539.533
  P       16.021    -346.817     543.994
  C       17.141    -345.309     545.759
  O       17.317    -346.066     544.581
  O       14.841    -346.850     544.910
  O       15.710    -345.991     542.661
  H       15.124    -345.235     542.859
  H       18.078    -345.295     546.316
  H       16.354    -345.738     546.398
  H       16.868    -344.283     545.496
  H       20.836    -346.930     537.398
  H       19.343    -346.837     538.301
  H       19.315    -347.279     536.611

 3  4  5  6  7  8  9  10  11  12  13  23  28  29  30  31  32 0
 6-311+G(2d,p)
 ****
 33  34 0
 6-311+G(2d,p)
 ****
 1  2  14  15  16  17  18  19  20  21  22  24  25  26  27 0
 3-21G
 ****
 35  36  37  38  39  40  41  42  43  44  45 0
 3-21G
 ****


