%nproc=1
%NoSave
%Mem=1900MB
#P OB98/GEN NMR

erre ene a

0 1
  C      492.193    -560.370    -498.028
  O      493.604    -560.418    -497.986
  H      491.833    -559.908    -497.106
  H      491.779    -561.379    -498.096
  H      491.856    -559.766    -498.875
  P      494.386    -561.061    -499.230
  C      494.340    -558.719    -500.344
  O      494.018    -560.095    -500.465
  C      495.308    -558.304    -501.446
  O      496.625    -558.865    -501.238
  C      494.916    -558.764    -502.849
  O      493.828    -558.041    -503.407
  C      496.220    -558.506    -503.584
  O      496.366    -557.093    -503.825
  C      497.248    -559.007    -502.545
  N      497.651    -560.393    -502.775
  C      498.734    -560.596    -503.635
  O      499.299    -559.644    -504.173
  N      499.135    -561.887    -503.906
  C      498.497    -562.882    -503.376
  N      498.931    -564.137    -503.684
  C      497.340    -562.714    -502.474
  C      496.972    -561.460    -502.218
  O      494.160    -562.522    -499.464
  O      495.923    -560.687    -498.978
  H      495.657    -556.837    -504.445
  H      496.454    -561.073    -499.718
  H      496.823    -563.582    -502.086
  H      496.128    -561.255    -501.572
  H      498.144    -558.372    -502.543
  H      496.281    -559.003    -504.550
  H      494.715    -559.844    -502.866
  H      495.413    -557.213    -501.397
  H      499.728    -564.219    -504.304
  H      494.783    -558.561    -499.353
  H      498.447    -564.970    -503.378
  H      493.437    -558.115    -500.429
  P      492.789    -558.872    -504.309
  C      491.690    -560.072    -502.263
  O      492.423    -560.190    -503.473
  O      493.703    -559.412    -505.508
  O      491.606    -558.100    -504.785
  H      493.597    -558.843    -506.298
  H      491.537    -561.044    -501.843
  H      490.743    -559.617    -502.463
  H      492.238    -559.467    -501.572

 6  7  8  9  10  11  12  13  14  15  16  26  30  31  32  33  35 0
 6-311+G(2d,p)
 ****
 37  38 0
 6-311+G(2d,p)
 ****
 1  2  3  4  5  17  18  19  20  21  22  23  24  25 0
 3-21G
 ****
 27  28  29  34  36  39  40  41  42  43  44  45  46 0
 3-21G
 ****


