%nproc=1
%NoSave
%Mem=1900MB
#P OB98/GEN NMR

erre ene a

0 1
  C     -425.557     191.677    -368.309
  O     -424.831     191.044    -369.345
  H     -424.914     192.425    -367.837
  H     -425.862     190.953    -367.552
  H     -426.435     192.184    -368.720
  P     -425.530     189.846    -370.145
  C     -423.375     188.413    -370.268
  O     -424.363     189.135    -370.992
  C     -422.597     187.484    -371.201
  O     -423.462     186.441    -371.692
  C     -422.027     188.174    -372.435
  O     -420.896     188.944    -372.095
  C     -421.762     186.975    -373.323
  O     -420.552     186.301    -372.936
  C     -422.999     186.092    -373.021
  N     -424.073     186.239    -374.000
  C     -423.959     185.476    -375.167
  O     -422.985     184.741    -375.333
  N     -424.941     185.583    -376.121
  C     -425.977     186.346    -375.913
  N     -426.914     186.401    -376.893
  C     -426.153     187.139    -374.682
  C     -425.171     187.053    -373.786
  O     -426.746     190.205    -370.944
  O     -425.863     188.768    -369.009
  H     -419.844     186.970    -372.993
  H     -426.776     188.885    -368.686
  H     -427.028     187.758    -374.547
  H     -425.224     187.605    -372.849
  H     -422.715     185.030    -372.993
  H     -421.649     187.250    -374.378
  H     -422.796     188.796    -372.909
  H     -421.803     187.007    -370.612
  H     -426.757     185.827    -377.711
  H     -423.892     187.830    -369.501
  H     -427.821     186.828    -376.774
  H     -422.685     189.103    -369.765
  P     -421.025     190.462    -371.586
  C     -420.072     191.506    -373.735
  O     -419.870     191.277    -372.345
  O     -421.046     190.629    -370.104
  O     -422.352     190.988    -372.303
  H     -423.156     190.635    -371.842
  H     -419.243     192.055    -374.130
  H     -420.972     192.068    -373.877
  H     -420.154     190.568    -374.243

 6  7  8  9  10  11  12  13  14  15  16  26  30  31  32  33  35 0
 6-311+G(2d,p)
 ****
 37  38 0
 6-311+G(2d,p)
 ****
 1  2  3  4  5  17  18  19  20  21  22  23  24  25 0
 3-21G
 ****
 27  28  29  34  36  39  40  41  42  43  44  45  46 0
 3-21G
 ****


