%nproc=1
%NoSave
%Mem=1900MB
#P OB98/GEN NMR

erre ene a

0 1
  C     -173.922     302.628      28.434
  O     -174.682     303.118      27.344
  H     -174.378     301.698      28.788
  H     -173.926     303.354      29.254
  H     -172.896     302.423      28.116
  P     -174.162     304.477      26.666
  C     -175.001     305.753      28.755
  O     -173.902     305.465      27.903
  C     -174.610     306.803      29.794
  O     -175.686     307.023      30.728
  C     -173.397     306.427      30.643
  O     -172.191     306.688      29.946
  C     -173.578     307.365      31.827
  O     -173.113     308.683      31.481
  C     -175.111     307.383      32.009
  N     -178.130     306.939      36.140
  C     -177.703     308.025      35.453
  N     -176.866     308.068      34.393
  C     -176.461     306.833      34.053
  C     -176.816     305.641      34.657
  C     -177.701     305.721      35.753
  N     -178.142     304.616      36.446
  N     -176.200     304.571      34.039
  C     -175.535     305.106      33.039
  N     -175.629     306.480      33.022
  O     -175.005     305.008      25.555
  O     -172.675     304.057      26.245
  H     -173.236     309.254      32.260
  H     -172.271     303.492      26.930
  H     -178.083     308.981      35.798
  H     -174.976     304.554      32.288
  H     -175.478     308.383      32.272
  H     -173.004     307.048      32.704
  H     -173.459     305.393      30.991
  H     -174.434     307.751      29.265
  H     -175.343     304.843      29.258
  H     -178.631     304.771      37.309
  H     -177.723     303.718      36.229
  H     -175.813     306.130      28.127
  P     -170.904     305.753      30.148
  C     -169.917     307.408      31.856
  O     -170.338     306.064      31.616
  O     -169.889     305.829      29.059
  O     -171.508     304.278      30.302
  H     -170.933     303.631      29.852
  H     -169.561     307.496      32.861
  H     -170.743     308.072      31.711
  H     -169.131     307.662      31.176

 6  7  8  9  10  11  12  13  14  15  25  28  32  33  34  35 0
 6-311+G(2d,p)
 ****
 36  39  40 0
 6-311+G(2d,p)
 ****
 1  2  3  4  5  16  17  18  19  20  21  22  23  24 0
 3-21G
 ****
 26  27  29  30  31  37  38  41  42  43  44  45  46  47 0
 3-21G
 ****
 48 0
 3-21G
 ****


