%nproc=1
%NoSave
%Mem=1900MB
#P OB98/GEN NMR

erre ene a

0 1
  C       67.367     -41.375     176.912
  O       67.674     -42.723     177.211
  H       67.444     -40.787     177.831
  H       66.344     -41.300     176.530
  H       68.071     -40.978     176.175
  P       67.786     -43.732     175.970
  C       65.997     -45.651     175.866
  O       66.305     -44.277     175.665
  C       65.713     -45.909     177.345
  O       64.622     -45.092     177.817
  C       65.256     -47.328     177.646
  O       66.295     -48.273     177.526
  C       64.741     -47.156     179.067
  O       65.820     -47.134     180.012
  C       64.063     -45.764     178.979
  N       62.611     -45.854     178.905
  C       61.970     -46.315     180.064
  O       62.626     -46.604     181.065
  N       60.604     -46.462     180.044
  C       59.934     -46.151     178.977
  N       58.587     -46.328     179.019
  C       60.569     -45.638     177.745
  C       61.896     -45.523     177.777
  O       68.506     -45.003     176.619
  O       68.472     -43.181     174.762
  H       66.287     -47.987     179.915
  H       68.060     -45.342     177.413
  H       59.970     -45.387     176.881
  H       62.439     -45.155     176.916
  H       64.322     -45.153     179.852
  H       64.074     -47.969     179.365
  H       64.402     -47.595     177.009
  H       66.612     -45.645     177.917
  H       58.190     -46.704     179.874
  H       66.812     -46.292     175.514
  H       57.968     -46.155     178.240
  H       65.112     -45.884     175.266
  P       65.971     -49.844     177.499
  C       66.963     -51.036     179.553
  O       65.854     -50.306     179.033
  O       66.897     -50.670     176.669
  O       64.444     -49.895     177.015
  H       63.816     -49.429     177.596
  H       66.775     -51.289     180.576
  H       67.846     -50.435     179.491
  H       67.100     -51.931     178.983

 6  7  8  9  10  11  12  13  14  15  16  26  30  31  32  33  35 0
 6-311+G(2d,p)
 ****
 37  38 0
 6-311+G(2d,p)
 ****
 1  2  3  4  5  17  18  19  20  21  22  23  24  25 0
 3-21G
 ****
 27  28  29  34  36  39  40  41  42  43  44  45  46 0
 3-21G
 ****


