%nproc=1
%NoSave
%Mem=1900MB
#P OB98/GEN NMR

erre ene a

0 1
  C       38.611      38.131     -28.472
  O       38.591      38.261     -29.879
  H       37.890      38.831     -28.044
  H       39.607      38.378     -28.095
  H       38.338      37.116     -28.170
  P       39.322      37.108     -30.723
  C       38.783      34.612     -31.183
  O       38.607      35.727     -30.323
  C       38.928      33.332     -30.366
  O       40.233      33.271     -29.753
  C       37.916      33.192     -29.233
  O       36.679      32.668     -29.699
  C       38.629      32.191     -28.340
  O       38.500      30.865     -28.896
  C       40.087      32.659     -28.440
  N       41.418      33.290     -23.588
  C       41.013      32.149     -24.254
  N       40.945      31.018     -23.521
  N       40.698      32.119     -25.523
  C       40.789      33.329     -26.124
  C       41.171      34.530     -25.570
  C       41.532      34.545     -24.172
  O       41.907      35.527     -23.537
  N       41.140      35.543     -26.491
  C       40.719      34.961     -27.596
  N       40.488      33.618     -27.425
  O       40.758      37.012     -30.017
  O       39.453      37.375     -32.184
  H       38.662      30.940     -29.854
  H       41.414      37.471     -30.574
  H       41.639      33.260     -22.608
  H       40.572      35.461     -28.542
  H       40.796      31.825     -28.386
  H       38.213      32.154     -27.332
  H       41.152      30.975     -22.535
  H       37.778      34.136     -28.692
  H       40.654      30.170     -23.990
  H       38.853      32.483     -31.057
  H       39.685      34.764     -31.785
  H       37.916      34.534     -31.847
  P       35.368      32.910     -28.808
  C       34.168      35.002     -27.856
  O       35.370      34.460     -28.384
  O       35.726      32.150     -27.446
  O       34.097      32.405     -29.396
  H       35.157      31.361     -27.346
  H       34.316      36.035     -27.620
  H       33.896      34.469     -26.969
  H       33.387      34.910     -28.581

 6  7  8  9  10  11  12  13  14  15  26  29  33  34 0
 6-311+G(2d,p)
 ****
 36  38  39  40  41 0
 6-311+G(2d,p)
 ****
 1  2  3  4  5  16  17  18  19  20  21  22  23  24  25 0
 3-21G
 ****
 27  28  30  31  32  35  37  42  43  44  45  46  47 0
 3-21G
 ****
 48  49 0
 3-21G
 ****


