%nproc=1
%NoSave
%Mem=1900MB
#P OB98/GEN NMR

erre ene a

0 1
  C     -259.025     181.071     398.487
  O     -258.102     182.133     398.604
  H     -258.514     180.130     398.718
  H     -259.421     181.011     397.468
  H     -259.847     181.209     399.199
  P     -258.550     183.606     398.159
  C     -256.264     183.981     397.045
  O     -257.205     184.465     397.993
  C     -254.827     184.228     397.526
  O     -254.721     185.607     397.973
  C     -254.409     183.324     398.693
  O     -253.032     182.971     398.521
  C     -254.584     184.226     399.895
  O     -253.782     183.808     400.988
  C     -254.236     185.606     399.328
  N     -254.827     186.675     400.120
  C     -253.932     187.558     400.747
  O     -252.713     187.411     400.605
  N     -254.421     188.530     401.578
  C     -255.699     188.591     401.813
  N     -256.124     189.558     402.673
  C     -256.680     187.673     401.196
  C     -256.180     186.756     400.369
  O     -259.604     184.250     399.001
  O     -259.049     183.406     396.645
  H     -252.879     183.577     400.654
  H     -260.008     183.212     396.629
  H     -257.732     187.761     401.429
  H     -256.822     186.024     399.878
  H     -253.144     185.749     399.293
  H     -255.628     184.205     400.227
  H     -255.018     182.411     398.769
  H     -254.146     184.115     396.676
  H     -255.406     190.150     403.098
  H     -256.432     184.515     396.096
  H     -257.080     189.678     402.968
  H     -256.418     182.912     396.874
  P     -252.599     181.437     398.311
  C     -250.914     181.506     400.227
  O     -251.092     181.240     398.843
  O     -252.846     180.900     396.934
  O     -253.483     180.641     399.394
  H     -253.665     179.746     399.059
  H     -249.889     181.351     400.491
  H     -251.534     180.848     400.799
  H     -251.186     182.520     400.433

 6  7  8  9  10  11  12  13  14  15  16  26  30  31  32  33  35 0
 6-311+G(2d,p)
 ****
 37  38 0
 6-311+G(2d,p)
 ****
 1  2  3  4  5  17  18  19  20  21  22  23  24  25 0
 3-21G
 ****
 27  28  29  34  36  39  40  41  42  43  44  45  46 0
 3-21G
 ****


