%nproc=1
%NoSave
%Mem=1900MB
#P OB98/GEN NMR

erre ene a

0 1
  C     -399.613     155.973    -268.473
  O     -398.409     155.315    -268.135
  H     -400.083     155.442    -269.308
  H     -399.407     157.001    -268.785
  H     -400.302     155.973    -267.623
  P     -397.582     155.918    -266.895
  C     -398.699     154.424    -265.081
  O     -398.517     155.738    -265.602
  C     -398.344     154.404    -263.593
  O     -399.300     155.207    -262.860
  C     -398.394     153.022    -262.957
  O     -397.234     152.260    -263.244
  C     -398.535     153.379    -261.481
  O     -397.266     153.669    -260.883
  C     -399.396     154.651    -261.526
  N     -402.828     154.675    -257.752
  C     -401.526     155.052    -257.800
  N     -400.686     155.033    -258.855
  C     -401.315     154.569    -259.952
  C     -402.627     154.136    -260.054
  C     -403.404     154.204    -258.885
  N     -404.715     153.786    -258.829
  N     -402.890     153.687    -261.334
  C     -401.758     153.854    -261.994
  N     -400.783     154.383    -261.198
  O     -397.621     157.496    -267.174
  O     -396.186     155.407    -266.754
  H     -397.438     153.827    -259.932
  H     -396.812     157.763    -267.649
  H     -401.112     155.420    -256.864
  H     -401.596     153.592    -263.035
  H     -399.038     155.418    -260.832
  H     -398.982     152.558    -260.914
  H     -399.298     152.485    -263.281
  H     -397.348     154.858    -263.466
  H     -398.045     153.728    -265.617
  H     -399.740     154.126    -265.230
  H     -405.204     153.844    -257.953
  H     -405.122     153.335    -259.643
  P     -397.372     150.670    -263.375
  C     -397.792     151.078    -265.914
  O     -398.161     150.361    -264.743
  O     -398.430     150.298    -262.231
  O     -396.089     149.919    -263.218
  H     -397.976     149.955    -261.442
  H     -398.404     150.762    -266.733
  H     -396.764     150.885    -266.141
  H     -397.930     152.126    -265.749

 6  7  8  9  10  11  12  13  14  15  25  28  32  33  34  35 0
 6-311+G(2d,p)
 ****
 36  37  40 0
 6-311+G(2d,p)
 ****
 1  2  3  4  5  16  17  18  19  20  21  22  23  24 0
 3-21G
 ****
 26  27  29  30  31  38  39 41  42  43  44  45  46  47  48 0
 3-21G
 ****


