%nproc=1
%NoSave
%Mem=1900MB
#P OB98/GEN NMR

erre ene a

0 1
  C      433.023      92.947    -203.003
  O      432.791      92.429    -204.299
  H      434.005      93.427    -202.990
  H      433.017      92.143    -202.264
  H      432.267      93.693    -202.751
  P      431.429      91.634    -204.573
  C      431.570      89.391    -203.300
  O      431.804      90.075    -204.525
  C      432.895      88.964    -202.673
  O      432.663      88.284    -201.425
  C      433.721      88.015    -203.536
  O      434.446      88.732    -204.523
  C      434.627      87.399    -202.483
  O      435.670      88.329    -202.137
  C      433.660      87.230    -201.295
  N      431.284      83.903    -198.282
  C      431.971      85.059    -197.959
  N      432.064      85.356    -196.643
  N      432.527      85.847    -198.845
  C      432.414      85.391    -200.112
  C      431.775      84.254    -200.555
  C      431.108      83.427    -199.573
  O      430.468      82.406    -199.819
  N      431.952      84.071    -201.900
  C      432.651      85.123    -202.282
  N      432.967      85.953    -201.230
  O      430.666      92.038    -205.796
  O      430.574      91.845    -203.235
  H      435.237      89.167    -201.888
  H      429.993      92.624    -203.307
  H      430.886      83.333    -197.557
  H      432.953      85.334    -203.302
  H      434.162      87.366    -200.330
  H      435.113      86.481    -202.823
  H      431.792      84.715    -195.913
  H      433.100      87.227    -203.977
  H      432.613      86.166    -196.386
  H      433.464      89.874    -202.439
  H      430.956      88.516    -203.524
  H      431.024      90.034    -202.600
  P      434.227      88.458    -206.091
  C      435.196      86.093    -205.688
  O      435.253      87.281    -206.462
  O      434.325      89.663    -206.957
  O      432.820      87.708    -206.169
  H      432.051      88.334    -206.193
  H      435.930      85.400    -206.043
  H      434.223      85.657    -205.775
  H      435.392      86.326    -204.662

 6  7  8  9  10  11  12  13  14  15  26  29  33  34 0
 6-311+G(2d,p)
 ****
 36  38  39  40  41 0
 6-311+G(2d,p)
 ****
 1  2  3  4  5  16  17  18  19  20  21  22  23  24  25 0
 3-21G
 ****
 27  28  30  31  32  35  37  42  43  44  45  46  47 0
 3-21G
 ****
 48  49 0
 3-21G
 ****


