%nproc=1
%NoSave
%Mem=1900MB
#P OB98/GEN NMR

erre ene a

0 1
  C     1382.116      71.668    -154.383
  O     1383.345      71.889    -153.706
  P     1383.898      73.379    -153.415
  C     1385.554      73.206    -155.387
  O     1385.394      73.368    -153.975
  C     1387.044      73.256    -155.751
  O     1387.555      74.579    -155.452
  C     1387.937      72.283    -154.979
  O     1387.994      70.970    -155.506
  C     1389.306      72.960    -155.187
  O     1389.811      72.647    -156.500
  C     1388.934      74.443    -155.069
  N     1390.951      78.245    -152.282
  C     1390.867      78.042    -153.632
  N     1390.349      76.998    -154.291
  C     1389.803      76.128    -153.423
  C     1389.777      76.200    -152.049
  C     1390.378      77.330    -151.460
  N     1390.431      77.551    -150.094
  N     1389.129      75.095    -151.499
  C     1388.744      74.380    -152.539
  N     1389.141      74.965    -153.721
  O     1383.696      73.844    -152.013
  O     1383.114      74.282    -154.487
  H     1390.705      73.010    -156.556
  H     1383.171      75.238    -154.219
  H     1391.338      78.801    -154.250
  H     1388.226      73.445    -152.480
  H     1389.526      75.072    -155.751
  H     1390.057      72.605    -154.456
  H     1387.710      72.277    -153.912
  H     1387.137      73.092    -156.832
  H     1385.040      74.031    -155.885
  H     1390.764      78.455    -149.779
  H     1389.859      76.942    -149.501
  H     1385.094      72.281    -155.690
  P     1387.628      69.768    -154.520
  C     1390.152      69.014    -154.454
  O     1388.792      68.667    -154.731
  O     1386.240      69.233    -154.647
  O     1387.961      70.372    -153.071
  H     1388.901      70.563    -152.895
  H     1390.753      68.106    -154.487
  H     1390.231      69.442    -153.447
  H     1390.499      69.728    -155.191
  H     1381.941      70.616    -154.470
  H     1382.163      72.103    -155.359
  H     1381.318      72.118    -153.830

 3  4  5  6  7  8  9  10  11  12  22  25  29  30  31  32 0
 6-311+G(2d,p)
 ****
 33  36  37 0
 6-311+G(2d,p)
 ****
 1  2  13  14  15  16  17  18  19  20  21  23  24  26 0
 3-21G
 ****
 27  28  34  35  38  39  40  41  42  43  44  45  46  47  48 0
 3-21G
 ****


