%nproc=1
%NoSave
%Mem=1900MB
#P OB98/GEN NMR

erre ene a

0 1
  C     -246.169     141.619      59.340
  O     -246.396     142.604      60.331
  H     -246.952     141.699      58.580
  H     -246.207     140.623      59.787
  H     -245.197     141.776      58.865
  P     -245.324     142.677      61.521
  C     -247.082     141.487      63.037
  O     -245.743     141.530      62.563
  C     -247.142     140.747      64.380
  O     -246.723     139.365      64.165
  C     -246.215     141.336      65.453
  O     -246.801     141.102      66.744
  C     -244.976     140.471      65.302
  O     -244.147     140.590      66.434
  C     -245.636     139.113      65.080
  N     -242.345     135.405      66.273
  C     -243.165     136.162      67.032
  N     -244.024     137.125      66.636
  C     -243.998     137.256      65.298
  C     -243.214     136.563      64.394
  C     -242.348     135.597      64.930
  N     -241.491     134.840      64.166
  N     -243.455     137.002      63.106
  C     -244.372     137.940      63.231
  N     -244.732     138.125      64.538
  O     -245.712     144.036      62.276
  O     -243.893     142.654      61.104
  H     -243.861     141.516      66.565
  H     -245.183     144.775      61.920
  H     -243.130     135.966      68.100
  H     -244.802     138.518      62.424
  H     -246.059     138.700      66.003
  H     -244.386     140.771      64.429
  H     -246.027     142.406      65.325
  H     -248.182     140.713      64.723
  H     -247.699     140.972      62.295
  H     -247.452     142.511      63.170
  H     -240.879     134.187      64.631
  H     -241.454     134.994      63.166
  P     -247.137     142.359      67.690
  C     -244.798     142.523      68.834
  O     -245.798     143.159      68.054
  O     -247.491     141.640      69.081
  O     -248.284     143.205      67.244
  H     -248.303     142.032      69.458
  H     -243.979     143.196      68.981
  H     -244.453     141.647      68.326
  H     -245.208     142.247      69.783

 6  7  8  9  10  11  12  13  14  15  25  28  32  33  34  35 0
 6-311+G(2d,p)
 ****
 36  37  40 0
 6-311+G(2d,p)
 ****
 1  2  3  4  5  16  17  18  19  20  21  22  23  24 0
 3-21G
 ****
 26  27  29  30  31  38  39 41  42  43  44  45  46  47  48 0
 3-21G
 ****


