%nproc=1
%NoSave
%Mem=1900MB
#P OB98/GEN NMR

erre ene a

0 1
  C      -84.556    -514.957     441.092
  O      -83.741    -515.914     441.737
  H      -83.955    -514.064     440.888
  H      -85.387    -514.676     441.741
  H      -84.936    -515.352     440.145
  P      -84.378    -517.365     441.976
  C      -84.357    -518.107     439.459
  O      -85.120    -517.787     440.614
  C      -84.799    -519.462     438.900
  O      -84.330    -520.545     439.729
  C      -86.307    -519.653     438.872
  O      -86.940    -518.867     437.885
  C      -86.388    -521.151     438.615
  O      -86.168    -521.451     437.234
  C      -85.216    -521.672     439.484
  N      -85.671    -522.278     440.726
  C      -85.558    -523.672     440.805
  O      -85.087    -524.309     439.859
  N      -86.006    -524.309     441.934
  C      -86.502    -523.615     442.913
  N      -86.939    -524.308     443.999
  C      -86.616    -522.146     442.884
  C      -86.190    -521.547     441.771
  O      -85.600    -517.052     442.960
  O      -83.429    -518.402     442.476
  H      -86.902    -521.035     436.739
  H      -86.200    -516.363     442.631
  H      -87.025    -521.609     443.728
  H      -86.241    -520.471     441.670
  H      -84.631    -522.420     438.934
  H      -87.367    -521.559     438.877
  H      -86.734    -519.457     439.864
  H      -84.358    -519.576     437.899
  H      -86.863    -525.318     443.973
  H      -83.287    -518.115     439.683
  H      -87.369    -523.880     444.805
  H      -84.532    -517.321     438.718
  P      -88.493    -518.494     438.012
  C      -87.790    -516.796     439.814
  O      -88.685    -517.850     439.470
  O      -89.441    -519.606     437.696
  O      -88.645    -517.221     437.054
  H      -88.093    -516.457     437.304
  H      -88.012    -516.448     440.801
  H      -87.903    -515.991     439.118
  H      -86.784    -517.158     439.781

 6  7  8  9  10  11  12  13  14  15  16  26  30  31  32  33  35 0
 6-311+G(2d,p)
 ****
 37  38 0
 6-311+G(2d,p)
 ****
 1  2  3  4  5  17  18  19  20  21  22  23  24  25 0
 3-21G
 ****
 27  28  29  34  36  39  40  41  42  43  44  45  46 0
 3-21G
 ****


