%nproc=1
%NoSave
%Mem=1900MB
#P OB98/GEN NMR

erre ene a

0 1
  C     1212.769    -760.253     550.753
  O     1213.569    -759.168     550.257
  P     1213.612    -758.924     548.660
  C     1212.404    -756.662     548.994
  O     1212.436    -757.889     548.262
  C     1211.406    -755.667     548.365
  O     1211.783    -755.364     546.978
  C     1209.982    -756.262     548.323
  O     1208.996    -755.205     548.469
  C     1209.879    -756.770     546.879
  O     1208.503    -756.911     546.469
  C     1210.669    -755.702     546.131
  N     1209.434    -756.420     541.213
  C     1208.763    -755.891     542.218
  N     1209.154    -755.700     543.507
  C     1210.406    -756.127     543.680
  C     1211.247    -756.702     542.731
  C     1210.719    -756.835     541.441
  N     1211.419    -757.427     540.397
  N     1212.468    -757.035     543.277
  C     1212.360    -756.703     544.559
  N     1211.132    -756.134     544.832
  O     1213.672    -760.132     547.814
  O     1214.925    -758.013     548.480
  H     1208.499    -757.010     545.507
  H     1215.408    -758.337     547.700
  H     1207.741    -755.565     541.998
  H     1213.129    -756.883     545.303
  H     1210.077    -754.784     545.991
  H     1210.364    -757.741     546.814
  H     1209.768    -757.033     549.055
  H     1211.426    -754.738     548.915
  H     1213.395    -756.208     548.989
  H     1210.932    -757.593     539.542
  H     1212.281    -757.878     540.574
  H     1212.168    -756.863     550.048
  P     1209.104    -754.358     549.823
  C     1209.576    -752.142     548.498
  O     1209.996    -753.091     549.479
  O     1209.525    -755.177     551.018
  O     1207.613    -753.759     549.942
  H     1207.289    -753.331     549.151
  H     1210.274    -751.293     548.514
  H     1208.585    -751.784     548.736
  H     1209.595    -752.609     547.517
  H     1212.839    -760.289     551.820
  H     1213.123    -761.175     550.341
  H     1211.749    -760.103     550.468

 3  4  5  6  7  8  9  10  11  12  22  25  29  30  31  32 0
 6-311+G(2d,p)
 ****
 33  36  37 0
 6-311+G(2d,p)
 ****
 1  2  13  14  15  16  17  18  19  20  21  23  24  26 0
 3-21G
 ****
 27  28  34  35  38  39  40  41  42  43  44  45  46  47  48 0
 3-21G
 ****


