%nproc=1
%NoSave
%Mem=1900MB
#P OB98/GEN NMR

erre ene a

0 1
  C      -40.109    -248.431     103.332
  O      -41.030    -248.787     104.342
  H      -39.106    -248.713     103.658
  H      -40.129    -247.351     103.154
  H      -40.335    -248.966     102.405
  P      -42.571    -248.371     104.152
  C      -43.104    -250.464     102.714
  O      -42.993    -249.048     102.752
  C      -44.569    -250.879     102.816
  O      -45.368    -250.230     101.806
  C      -44.828    -252.370     102.611
  O      -44.440    -253.169     103.716
  C      -46.335    -252.352     102.408
  O      -46.990    -252.179     103.675
  C      -46.504    -251.095     101.517
  N      -46.558    -251.410     100.089
  C      -47.196    -250.477      99.265
  O      -47.679    -249.448      99.743
  N      -47.303    -250.742      97.922
  C      -46.833    -251.853      97.444
  N      -47.010    -252.092      96.114
  C      -46.141    -252.859      98.273
  C      -46.042    -252.581      99.569
  O      -42.882    -246.916     104.277
  O      -43.364    -249.285     105.202
  H      -47.945    -252.315     103.524
  H      -44.322    -249.056     105.131
  H      -45.774    -253.774      97.825
  H      -45.563    -253.279     100.246
  H      -47.408    -250.541     101.794
  H      -46.723    -253.277     101.964
  H      -44.354    -252.725     101.688
  H      -44.947    -250.537     103.792
  H      -47.531    -251.397      95.583
  H      -42.518    -250.876     103.544
  H      -46.933    -253.025      95.727
  H      -42.700    -250.848     101.773
  P      -44.078    -254.708     103.442
  C      -41.641    -253.917     102.956
  O      -42.740    -254.719     102.555
  O      -45.218    -255.167     102.418
  O      -44.010    -255.586     104.657
  H      -45.966    -255.580     102.881
  H      -40.837    -254.040     102.261
  H      -41.318    -254.216     103.931
  H      -41.939    -252.890     102.979

 6  7  8  9  10  11  12  13  14  15  16  26  30  31  32  33  35 0
 6-311+G(2d,p)
 ****
 37  38 0
 6-311+G(2d,p)
 ****
 1  2  3  4  5  17  18  19  20  21  22  23  24  25 0
 3-21G
 ****
 27  28  29  34  36  39  40  41  42  43  44  45  46 0
 3-21G
 ****


