%nproc=1
%NoSave
%Mem=1900MB
#P OB98/GEN NMR

erre ene a

0 1
  C       10.487     -46.086      14.625
  O       10.259     -47.471      14.424
  P       11.466     -48.464      14.061
  C        9.733     -50.350      14.290
  O       10.757     -49.782      13.483
  C        9.561     -51.828      13.955
  O       10.873     -52.436      13.884
  C        8.789     -52.660      14.979
  O        7.377     -52.608      14.838
  C        9.278     -54.060      14.632
  O        8.584     -54.543      13.467
  C       10.754     -53.817      14.308
  N       13.754     -57.227      16.662
  C       13.047     -57.286      15.511
  N       12.256     -56.341      14.961
  C       12.269     -55.224      15.704
  C       12.944     -55.012      16.895
  C       13.718     -56.080      17.378
  N       14.456     -56.008      18.539
  N       12.697     -53.740      17.376
  C       11.900     -53.195      16.482
  N       11.620     -54.047      15.450
  O       12.441     -48.682      15.165
  O       12.133     -47.816      12.762
  H        8.668     -53.854      12.780
  H       13.023     -48.192      12.622
  H       13.121     -58.221      14.960
  H       11.500     -52.193      16.541
  H       11.112     -54.442      13.483
  H        9.098     -54.784      15.432
  H        9.095     -52.416      16.003
  H        9.099     -51.906      12.963
  H        8.796     -49.822      14.078
  H       15.082     -56.773      18.738
  H       14.559     -55.107      18.983
  H        9.976     -50.209      15.346
  P        6.529     -52.140      16.122
  C        4.617     -51.278      14.557
  O        5.001     -52.099      15.638
  O        7.029     -50.900      16.776
  O        6.581     -53.429      17.070
  H        6.104     -54.207      16.738
  H        3.585     -51.514      14.286
  H        5.254     -51.454      13.687
  H        4.672     -50.225      14.847
  H        9.561     -45.602      14.856
  H       10.900     -45.660      13.735
  H       11.172     -45.951      15.436

 3  4  5  6  7  8  9  10  11  12  22  25  29  30  31  32 0
 6-311+G(2d,p)
 ****
 33  36  37 0
 6-311+G(2d,p)
 ****
 1  2  13  14  15  16  17  18  19  20  21  23  24  26 0
 3-21G
 ****
 27  28  34  35  38  39  40  41  42  43  44  45  46  47  48 0
 3-21G
 ****


