%nproc=1
%NoSave
%Mem=1900MB
#P OB98/GEN NMR

erre ene a

0 1
  C      142.903    -100.398     -99.334
  O      143.237    -101.002     -98.083
  P      142.302    -102.213     -97.594
  C      140.613    -100.720     -96.311
  O      140.815    -101.652     -97.366
  C      139.252    -100.914     -95.632
  O      138.171    -100.487     -96.503
  C      138.967    -102.364     -95.234
  O      138.198    -102.337     -94.029
  C      138.086    -102.862     -96.365
  O      137.333    -104.006     -95.967
  C      137.260    -101.598     -96.655
  N      136.641    -101.610     -97.980
  C      135.252    -101.752     -98.031
  O      134.607    -101.931     -96.995
  N      134.627    -101.730     -99.252
  C      135.336    -101.631    -100.336
  N      134.658    -101.618    -101.517
  C      136.808    -101.537    -100.334
  C      137.386    -101.528     -99.133
  O      142.828    -102.511     -96.112
  O      142.395    -103.429     -98.459
  H      136.655    -104.182     -96.657
  H      142.995    -103.465     -96.003
  H      137.358    -101.477    -101.263
  H      138.460    -101.460     -99.029
  H      136.461    -101.479     -95.913
  H      138.699    -103.132     -97.234
  H      139.873    -102.961     -95.082
  H      139.223    -100.276     -94.739
  H      133.647    -101.678    -101.476
  H      140.675     -99.700     -96.702
  H      135.105    -101.548    -102.418
  H      141.431    -100.818     -95.588
  P      138.931    -102.698     -92.650
  C      138.594    -105.242     -92.523
  O      139.481    -104.192     -92.856
  O      137.678    -102.954     -91.677
  O      139.877    -101.704     -92.063
  H      137.993    -103.117     -90.769
  H      139.043    -106.189     -92.826
  H      137.641    -105.119     -93.051
  H      138.426    -105.263     -91.441
  H      143.595     -99.610     -99.546
  H      141.912     -99.998     -99.283
  H      142.951    -101.134    -100.109

 3  4  5  6  7  8  9  10  11  12  13  21  23  27  28  29  30  32 0
 6-311+G(2d,p)
 ****
 34  35 0
 6-311+G(2d,p)
 ****
 1  2  14  15  16  17  18  19  20  22  24  25  26 0
 3-21G
 ****
 31  33  36  37  38  39  40  41  42  43  44  45  46 0
 3-21G
 ****


