%nproc=1
%NoSave
%Mem=1900MB
#P OB98/GEN NMR

erre ene a

0 1
  C     -297.611     126.079     -39.079
  O     -296.513     125.159     -39.144
  P     -296.685     123.609     -38.766
  C     -295.225     123.197     -36.694
  O     -295.335     123.037     -38.105
  C     -293.794     122.986     -36.172
  O     -293.356     121.617     -36.397
  C     -292.732     123.895     -36.803
  O     -291.747     124.112     -35.791
  C     -292.178     123.017     -37.912
  O     -290.904     123.436     -38.384
  C     -292.172     121.660     -37.213
  N     -289.215     118.166     -39.513
  C     -288.976     119.007     -38.482
  N     -289.820     119.880     -37.903
  C     -291.042     119.808     -38.459
  C     -291.439     118.992     -39.507
  C     -290.456     118.144     -40.050
  N     -290.681     117.320     -41.130
  N     -292.765     119.216     -39.829
  C     -293.155     120.159     -38.995
  N     -292.151     120.548     -38.145
  O     -297.222     122.764     -39.879
  O     -297.720     123.614     -37.542
  H     -290.986     124.351     -38.712
  H     -298.395     122.924     -37.689
  H     -287.966     118.982     -38.080
  H     -294.138     120.613     -38.976
  H     -291.304     121.558     -36.549
  H     -292.869     123.032     -38.764
  H     -293.135     124.842     -37.170
  H     -293.819     123.129     -35.084
  H     -295.897     122.481     -36.208
  H     -289.890     116.820     -41.508
  H     -291.558     117.386     -41.625
  H     -295.564     124.205     -36.428
  P     -291.249     125.586     -35.403
  C     -289.348     125.907     -37.089
  O     -289.684     125.643     -35.737
  O     -291.613     126.027     -34.026
  O     -291.898     126.539     -36.516
  H     -291.903     127.458     -36.195
  H     -289.500     125.003     -37.686
  H     -288.296     126.199     -37.143
  H     -289.963     126.719     -37.492
  H     -297.278     127.053     -39.371
  H     -297.987     126.116     -38.078
  H     -298.388     125.755     -39.740

 3  4  5  6  7  8  9  10  11  12  22  25  29  30  31  32 0
 6-311+G(2d,p)
 ****
 33  36  37 0
 6-311+G(2d,p)
 ****
 1  2  13  14  15  16  17  18  19  20  21  23  24  26 0
 3-21G
 ****
 27  28  34  35  38  39  40  41  42  43  44  45  46  47  48 0
 3-21G
 ****


