%nproc=1
%NoSave
%Mem=1900MB
#P OB98/GEN NMR

erre ene a

0 1
  C     -309.798    -150.274    -334.313
  O     -310.195    -151.417    -335.036
  P     -309.362    -151.929    -336.306
  C     -307.429    -152.828    -334.855
  O     -307.810    -151.912    -335.878
  C     -305.952    -153.211    -335.007
  O     -305.540    -153.978    -333.833
  C     -305.684    -154.079    -336.260
  O     -304.648    -153.587    -337.111
  C     -305.447    -155.456    -335.661
  O     -304.732    -156.332    -336.514
  C     -304.790    -155.110    -334.326
  N     -304.793    -156.225    -333.385
  C     -303.707    -157.097    -333.430
  O     -302.750    -156.973    -334.185
  N     -303.773    -158.176    -332.594
  C     -304.842    -158.536    -331.824
  O     -304.868    -159.573    -331.177
  C     -305.976    -157.597    -331.852
  C     -305.899    -156.496    -332.593
  O     -309.651    -151.226    -337.588
  O     -309.678    -153.501    -336.339
  H     -305.301    -156.528    -337.285
  H     -309.416    -153.985    -335.537
  H     -302.991    -158.819    -332.612
  H     -306.842    -157.860    -331.259
  H     -306.722    -155.789    -332.637
  H     -303.754    -154.778    -334.456
  H     -306.424    -155.915    -335.480
  H     -306.568    -154.112    -336.907
  H     -305.365    -152.288    -335.037
  H     -308.043    -153.726    -334.935
  H     -307.618    -152.383    -333.870
  P     -304.196    -154.259    -338.487
  C     -306.550    -153.605    -339.391
  O     -305.513    -154.568    -339.352
  O     -303.249    -155.403    -338.357
  O     -303.511    -153.048    -339.286
  H     -302.829    -153.397    -339.887
  H     -307.498    -154.122    -339.547
  H     -306.373    -152.922    -340.221
  H     -306.613    -153.037    -338.455
  H     -310.484    -150.105    -333.509
  H     -309.794    -149.424    -334.963
  H     -308.815    -150.425    -333.918

 3  4  5  6  7  8  9  10  11  12  13  23  28  29  30  31  32 0
 6-311+G(2d,p)
 ****
 33  34 0
 6-311+G(2d,p)
 ****
 1  2  14  15  16  17  18  19  20  21  22  24  25  26  27 0
 3-21G
 ****
 35  36  37  38  39  40  41  42  43  44  45 0
 3-21G
 ****


