%nproc=1
%NoSave
%Mem=1900MB
#P OB98/GEN NMR

erre ene a

0 1
  C      229.675      79.405     371.831
  O      229.144      79.442     370.520
  H      230.706      79.043     371.779
  H      229.091      78.727     372.461
  H      229.674      80.411     372.262
  P      227.617      79.918     370.378
  C      228.496      82.260     369.761
  O      227.683      81.162     369.361
  C      228.730      83.211     368.580
  O      229.635      82.569     367.647
  C      227.448      83.559     367.823
  O      227.501      84.928     367.419
  C      227.501      82.665     366.596
  O      226.758      83.195     365.500
  C      229.007      82.563     366.350
  N      228.592      80.177     361.858
  C      228.273      81.427     362.249
  N      228.434      81.988     363.469
  C      229.030      81.133     364.311
  C      229.412      79.822     364.060
  C      229.163      79.343     362.762
  N      229.462      78.061     362.365
  N      229.954      79.246     365.197
  C      229.909      80.198     366.116
  N      229.349      81.347     365.632
  O      226.895      80.172     371.655
  O      227.004      78.758     369.459
  H      227.275      83.930     365.110
  H      227.598      78.529     368.724
  H      227.826      82.060     361.487
  H      230.260      80.098     367.141
  H      229.395      83.409     365.770
  H      227.082      81.678     366.838
  H      226.549      83.384     368.413
  H      229.236      84.110     368.950
  H      229.461      81.897     370.135
  H      229.267      77.798     361.407
  H      229.903      77.428     363.015
  H      227.983      82.786     370.572
  P      226.176      85.821     367.562
  C      225.918      85.968     370.133
  O      226.270      86.655     368.935
  O      224.883      85.111     367.329
  O      226.407      86.967     366.457
  H      225.548      87.173     366.040
  H      226.023      86.630     370.967
  H      226.564      85.125     370.263
  H      224.904      85.634     370.068

 6  7  8  9  10  11  12  13  14  15  25  28  32  33  34  35 0
 6-311+G(2d,p)
 ****
 36  39  40 0
 6-311+G(2d,p)
 ****
 1  2  3  4  5  16  17  18  19  20  21  22  23  24 0
 3-21G
 ****
 26  27  29  30  31  37  38  41  42  43  44  45  46  47 0
 3-21G
 ****
 48 0
 3-21G
 ****


