%nproc=1
%NoSave
%Mem=1900MB
#P OB98/GEN NMR

erre ene a

0 1
  C        1.693    -770.058     229.972
  O        0.562    -769.224     230.091
  H        1.489    -770.998     230.500
  H        2.570    -769.589     230.427
  H        1.897    -770.286     228.925
  P        0.620    -767.771     229.406
  C       -0.974    -768.245     227.417
  O        0.372    -768.027     227.835
  C       -1.653    -766.923     227.105
  O       -0.886    -766.184     226.135
  C       -3.062    -767.076     226.529
  O       -4.001    -767.290     227.575
  C       -3.227    -765.713     225.858
  O       -3.502    -764.709     226.851
  C       -1.831    -765.498     225.252
  N       -1.826    -764.334     220.316
  C       -2.088    -763.533     221.412
  N       -2.448    -762.263     221.157
  N       -2.033    -763.960     222.648
  C       -1.734    -765.274     222.751
  C       -1.455    -766.166     221.739
  C       -1.475    -765.673     220.377
  O       -1.223    -766.346     219.367
  N       -1.252    -767.443     222.221
  C       -1.364    -767.306     223.521
  N       -1.659    -766.010     223.902
  O        1.831    -766.943     229.698
  O       -0.730    -767.062     229.881
  H       -2.880    -764.873     227.587
  H       -0.587    -766.536     230.692
  H       -1.898    -763.951     219.392
  H       -1.228    -768.102     224.249
  H       -1.545    -764.446     225.232
  H       -4.046    -765.692     225.138
  H       -2.782    -761.967     220.249
  H       -3.104    -767.842     225.760
  H       -2.703    -761.672     221.954
  H       -1.662    -766.320     228.027
  H       -1.490    -768.763     228.227
  H       -0.982    -768.891     226.528
  P       -5.068    -768.493     227.492
  C       -4.408    -769.216     229.890
  O       -4.530    -769.599     228.514
  O       -5.319    -768.997     226.102
  O       -6.373    -767.928     228.232
  H       -6.984    -767.442     227.627
  H       -4.040    -770.044     230.459
  H       -5.366    -768.923     230.265
  H       -3.726    -768.395     229.973

 6  7  8  9  10  11  12  13  14  15  26  29  33  34 0
 6-311+G(2d,p)
 ****
 36  38  39  40  41 0
 6-311+G(2d,p)
 ****
 1  2  3  4  5  16  17  18  19  20  21  22  23  24  25 0
 3-21G
 ****
 27  28  30  31  32  35  37  42  43  44  45  46  47 0
 3-21G
 ****
 48  49 0
 3-21G
 ****


