%nproc=1
%NoSave
%Mem=1900MB
#P OB98/GEN NMR

erre ene a

0 1
  C     -324.980      96.320    -212.304
  O     -325.588      95.580    -213.339
  H     -324.238      95.681    -211.813
  H     -325.721      96.624    -211.558
  H     -324.472      97.197    -212.705
  P     -326.853      96.212    -214.108
  C     -327.808      93.842    -213.855
  O     -327.625      94.940    -214.739
  C     -328.711      92.771    -214.471
  O     -330.003      93.347    -214.797
  C     -328.146      92.147    -215.755
  O     -328.269      90.722    -215.690
  C     -329.040      92.706    -216.853
  O     -329.059      91.872    -218.008
  C     -330.369      92.854    -216.101
  N     -331.307      93.746    -216.778
  C     -331.675      93.393    -218.079
  O     -331.184      92.397    -218.619
  N     -332.557      94.196    -218.761
  C     -332.997      95.282    -218.209
  N     -333.858      96.040    -218.935
  C     -332.597      95.719    -216.850
  C     -331.764      94.905    -216.195
  O     -326.518      97.290    -215.081
  O     -327.837      96.683    -212.937
  H     -328.140      91.773    -218.337
  H     -328.476      97.354    -213.294
  H     -332.977      96.638    -216.437
  H     -331.426      95.144    -215.191
  H     -330.854      91.872    -215.971
  H     -328.672      93.697    -217.154
  H     -327.100      92.390    -215.931
  H     -328.909      92.003    -213.710
  H     -334.109      95.707    -219.859
  H     -328.242      94.214    -212.918
  H     -334.258      96.911    -218.607
  H     -326.824      93.401    -213.646
  P     -326.944      89.915    -215.278
  C     -326.773      88.495    -217.443
  O     -326.971      88.497    -216.035
  O     -327.206      89.536    -213.747
  O     -325.688      90.701    -215.449
  H     -326.723      90.146    -213.162
  H     -326.816      87.490    -217.808
  H     -325.815      88.916    -217.669
  H     -327.538      89.078    -217.912

 6  7  8  9  10  11  12  13  14  15  16  26  30  31  32  33  35 0
 6-311+G(2d,p)
 ****
 37  38 0
 6-311+G(2d,p)
 ****
 1  2  3  4  5  17  18  19  20  21  22  23  24  25 0
 3-21G
 ****
 27  28  29  34  36  39  40  41  42  43  44  45  46 0
 3-21G
 ****


