%nproc=1
%NoSave
%Mem=1900MB
#P OB98/GEN NMR

erre ene a

0 1
  C      437.322    -336.617     378.924
  O      437.815    -335.532     379.730
  P      439.375    -335.143     379.648
  C      439.058    -332.752     378.632
  O      439.586    -334.066     378.478
  C      439.292    -331.935     377.363
  O      438.668    -332.574     376.221
  C      438.704    -330.528     377.393
  O      439.495    -329.646     378.169
  C      438.665    -330.175     375.906
  O      439.957    -329.705     375.462
  C      438.340    -331.547     375.269
  N      436.950    -331.640     374.831
  C      436.548    -330.742     373.849
  O      437.288    -329.859     373.389
  N      435.252    -330.864     373.413
  C      434.316    -331.726     373.915
  O      433.163    -331.769     373.504
  C      434.782    -332.592     375.014
  C      436.047    -332.504     375.417
  O      440.012    -336.470     378.995
  O      440.033    -334.828     380.960
  H      439.860    -329.426     374.535
  H      440.944    -336.557     379.282
  H      434.952    -330.234     372.679
  H      434.057    -333.275     375.453
  H      436.394    -333.140     376.225
  H      438.992    -331.714     374.404
  H      437.945    -329.393     375.682
  H      437.669    -330.569     377.777
  H      440.370    -331.892     377.174
  H      439.561    -332.263     379.472
  H      437.993    -332.823     378.862
  P      439.159    -329.567     379.740
  C      441.519    -330.457     380.437
  O      440.120    -330.642     380.432
  O      437.695    -330.223     379.780
  O      439.233    -328.171     380.291
  H      437.592    -330.922     379.098
  H      441.790    -329.392     380.489
  H      441.937    -330.892     379.516
  H      441.946    -330.976     381.295
  H      436.274    -336.742     379.097
  H      437.837    -337.518     379.185
  H      437.489    -336.398     377.890

 3  4  5  6  7  8  9  10  11  12  13  23  28  29  30  31  32 0
 6-311+G(2d,p)
 ****
 33  34 0
 6-311+G(2d,p)
 ****
 1  2  14  15  16  17  18  19  20  21  22  24  25  26 0
 3-21G
 ****
 27  35  36  37  38  39  40  41  42  43  44  45 0
 3-21G
 ****


