%nproc=1
%NoSave
%Mem=1900MB
#P OB98/GEN NMR

erre ene a

0 1
  C     -126.773     192.953     101.872
  O     -127.551     191.797     101.549
  P     -128.755     191.986     100.500
  C     -130.542     192.718     102.263
  O     -129.739     193.075     101.152
  C     -131.178     193.961     102.903
  O     -132.061     194.612     101.936
  C     -132.001     193.676     104.167
  O     -131.781     194.783     105.057
  C     -133.429     193.682     103.659
  O     -134.364     193.934     104.700
  C     -133.339     194.777     102.582
  N     -134.439     194.717     101.622
  C     -135.445     195.663     101.757
  O     -135.476     196.482     102.674
  N     -136.443     195.616     100.823
  C     -136.572     194.683      99.834
  O     -137.486     194.688      99.020
  C     -135.536     193.635      99.816
  C     -134.542     193.699     100.695
  O     -129.536     190.601     100.658
  O     -128.278     192.296      99.121
  H     -129.550     190.263     101.570
  H     -134.050     194.695     105.231
  H     -137.168     196.323     100.878
  H     -135.635     192.843      99.077
  H     -133.774     192.929     100.719
  H     -133.345     195.769     103.046
  H     -133.668     192.713     103.204
  H     -131.713     192.743     104.661
  H     -130.372     194.667     103.130
  H     -129.932     192.211     103.020
  H     -131.317     192.002     101.939
  P     -130.373     194.867     105.831
  C     -130.408     192.477     106.910
  O     -129.832     193.368     105.981
  O     -130.897     195.204     107.314
  O     -129.419     195.888     105.307
  H     -131.627     194.639     107.600
  H     -130.065     191.465     106.693
  H     -131.501     192.499     106.845
  H     -130.099     192.744     107.929
  H     -126.012     192.686     102.576
  H     -127.407     193.702     102.299
  H     -126.318     193.336     100.983

 3  4  5  6  7  8  9  10  11  12  13  24  28  29  30  31  32 0
 6-311+G(2d,p)
 ****
 33  34 0
 6-311+G(2d,p)
 ****
 1  2  14  15  16  17  18  19  20  21  22  23  25  26  27 0
 3-21G
 ****
 35  36  37  38  39  40  41  42  43  44  45 0
 3-21G
 ****


