%nproc=1
%NoSave
%Mem=1900MB
#P OB98/GEN NMR

erre ene a

0 1
  C       30.231     -12.922     -97.206
  O       29.641     -12.186     -98.280
  P       28.601     -12.991     -99.200
  C       27.917     -10.889    -100.551
  O       28.458     -12.200    -100.591
  C       28.971      -9.860    -100.131
  O       30.139      -9.922    -101.003
  C       28.469      -8.412    -100.162
  O       29.119      -7.720     -99.088
  C       29.011      -7.897    -101.482
  O       29.033      -6.473    -101.521
  C       30.377      -8.582    -101.488
  N       32.055      -5.721    -105.293
  C       31.368      -5.364    -104.149
  N       31.137      -4.047    -103.968
  N       30.946      -6.226    -103.260
  C       31.283      -7.506    -103.554
  C       31.973      -7.981    -104.645
  C       32.407      -7.020    -105.637
  O       33.021      -7.282    -106.664
  N       32.148      -9.344    -104.575
  C       31.500      -9.688    -103.474
  N       31.009      -8.608    -102.793
  O       27.199     -12.739     -98.470
  O       28.911     -14.447     -99.323
  H       29.612      -6.166    -100.791
  H       26.955     -13.517     -97.934
  H       32.342      -5.017    -105.953
  H       31.382     -10.696    -103.114
  H       31.090      -8.091    -100.811
  H       28.390      -8.255    -102.312
  H       31.478      -3.328    -104.587
  H       27.384      -8.307    -100.079
  H       30.671      -3.756    -103.117
  H       29.309     -10.111     -99.118
  H       27.082     -10.851     -99.847
  H       27.496     -10.646    -101.533
  P       28.197      -7.006     -97.991
  C       28.843      -8.469     -95.958
  O       28.907      -7.197     -96.570
  O       26.921      -7.974     -97.905
  O       27.785      -5.611     -98.335
  H       26.113      -7.440     -97.802
  H       29.705      -8.584     -95.297
  H       28.854      -9.277     -96.694
  H       27.930      -8.538     -95.361
  H       30.902     -12.288     -96.665
  H       30.770     -13.758     -97.600
  H       29.463     -13.271     -96.548

 3  4  5  6  7  8  9  10  11  12  23  26  30  31 0
 6-311+G(2d,p)
 ****
 33  35  36  37  38 0
 6-311+G(2d,p)
 ****
 1  2  13  14  15  16  17  18  19  20  21  22  24  25 0
 3-21G
 ****
 27  28  29  32  34  39  40  41  42  43  44  45  46  47  48  49 0
 3-21G
 ****


