%nproc=1
%NoSave
%Mem=1900MB
#P OB98/GEN NMR

erre ene a

0 1
  C      -12.180     -58.656      69.645
  O      -12.719     -57.882      70.698
  H      -12.731     -58.434      68.727
  H      -12.280     -59.722      69.867
  H      -11.126     -58.406      69.496
  P      -12.107     -58.146      72.160
  C      -14.473     -59.048      72.794
  O      -13.071     -59.277      72.771
  C      -15.208     -60.376      72.943
  O      -14.924     -61.244      71.824
  C      -14.815     -61.170      74.184
  O      -15.432     -60.688      75.367
  C      -15.327     -62.546      73.799
  O      -16.759     -62.586      73.944
  C      -14.916     -62.613      72.311
  N      -13.603     -63.226      72.104
  C      -13.573     -64.410      71.359
  O      -14.613     -64.900      70.918
  N      -12.365     -65.035      71.156
  C      -11.280     -64.518      71.645
  N      -10.115     -65.185      71.425
  C      -11.264     -63.264      72.421
  C      -12.445     -62.679      72.610
  O      -12.533     -56.843      72.988
  O      -10.651     -58.462      72.215
  H      -16.945     -62.696      74.895
  H      -12.309     -56.965      73.942
  H      -10.336     -62.878      72.817
  H      -12.511     -61.755      73.174
  H      -15.658     -63.170      71.725
  H      -14.919     -63.345      74.422
  H      -13.728     -61.221      74.303
  H      -16.288     -60.168      72.928
  H      -10.165     -66.073      70.944
  H      -14.759     -58.559      71.858
  H       -9.257     -64.959      71.915
  H      -14.732     -58.394      73.632
  P      -14.582     -60.752      76.728
  C      -15.876     -62.917      77.344
  O      -14.615     -62.274      77.232
  O      -15.525     -59.998      77.777
  O      -13.221     -60.132      76.652
  H      -15.004     -59.447      78.390
  H      -15.736     -63.920      77.689
  H      -16.354     -62.933      76.387
  H      -16.488     -62.383      78.040

 6  7  8  9  10  11  12  13  14  15  16  26  30  31  32  33  35 0
 6-311+G(2d,p)
 ****
 37  38 0
 6-311+G(2d,p)
 ****
 1  2  3  4  5  17  18  19  20  21  22  23  24  25 0
 3-21G
 ****
 27  28  29  34  36  39  40  41  42  43  44  45  46 0
 3-21G
 ****


