%nproc=1
%NoSave
%Mem=1900MB
#P OB98/GEN NMR

erre ene a

0 1
  C      111.637     263.237     120.558
  O      111.049     264.307     121.271
  H      112.201     262.619     121.259
  H      112.317     263.621     119.796
  H      110.860     262.627     120.091
  P      110.262     265.401     120.397
  C      108.111     264.816     121.757
  O      109.028     265.820     121.334
  C      107.801     264.984     123.237
  O      108.844     264.384     124.048
  C      107.708     266.434     123.714
  O      106.489     267.059     123.364
  C      107.839     266.227     125.210
  O      106.598     265.708     125.731
  C      108.954     265.172     125.267
  N      110.299     265.764     125.370
  C      110.542     266.568     126.490
  O      109.662     266.763     127.331
  N      111.772     267.171     126.612
  C      112.688     266.973     125.712
  N      113.881     267.594     125.888
  C      112.474     266.117     124.529
  C      111.272     265.551     124.424
  O      109.553     264.529     119.257
  O      111.079     266.543     119.886
  H      106.761     265.466     126.663
  H      108.920     265.090     118.749
  H      113.258     265.988     123.799
  H      111.044     264.907     123.578
  H      108.811     264.487     126.113
  H      108.046     267.144     125.756
  H      108.560     267.024     123.364
  H      106.872     264.436     123.448
  H      113.973     268.218     126.678
  H      108.569     263.838     121.571
  H      114.597     267.623     125.169
  H      107.184     264.891     121.180
  P      106.347     268.628     123.669
  C      108.296     269.586     122.227
  O      106.885     269.410     122.382
  O      107.486     268.889     124.770
  O      104.995     269.055     124.156
  H      107.204     269.573     125.403
  H      108.491     270.124     121.323
  H      108.772     268.629     122.182
  H      108.680     270.137     123.060

 6  7  8  9  10  11  12  13  14  15  16  26  30  31  32  33  35 0
 6-311+G(2d,p)
 ****
 37  38 0
 6-311+G(2d,p)
 ****
 1  2  3  4  5  17  18  19  20  21  22  23  24  25 0
 3-21G
 ****
 27  28  29  34  36  39  40  41  42  43  44  45  46 0
 3-21G
 ****


