%nproc=1
%NoSave
%Mem=1900MB
#P OB98/GEN NMR

erre ene a

0 1
  C       11.962    -248.420    -288.319
  O       13.037    -249.109    -287.674
  P       13.827    -248.326    -286.516
  C       15.875    -247.487    -287.906
  O       15.378    -248.382    -286.927
  C       17.354    -247.768    -288.200
  O       18.141    -247.594    -286.982
  C       17.638    -249.175    -288.741
  O       18.687    -249.045    -289.711
  C       18.139    -249.917    -287.517
  O       18.912    -251.057    -287.864
  C       18.911    -248.800    -286.807
  N       19.145    -249.087    -285.393
  C       20.082    -250.070    -285.098
  O       20.644    -250.743    -285.961
  N       20.320    -250.289    -283.767
  C       19.670    -249.686    -282.729
  O       19.921    -249.922    -281.553
  C       18.610    -248.740    -283.105
  C       18.401    -248.488    -284.399
  O       13.700    -249.353    -285.299
  O       13.278    -246.961    -286.257
  H       13.751    -250.285    -285.569
  H       19.692    -250.769    -288.382
  H       21.019    -250.974    -283.530
  H       18.030    -248.287    -282.309
  H       17.614    -247.814    -284.709
  H       19.882    -248.640    -287.292
  H       17.290    -250.247    -286.906
  H       16.761    -249.637    -289.204
  H       17.703    -247.018    -288.920
  H       15.776    -246.456    -287.551
  H       15.268    -247.571    -288.815
  P       18.282    -248.691    -291.229
  C       18.893    -250.966    -292.370
  O       19.191    -249.604    -292.183
  O       18.955    -247.242    -291.366
  O       16.816    -248.677    -291.505
  H       19.871    -247.213    -291.037
  H       19.472    -251.339    -293.221
  H       17.831    -251.115    -292.583
  H       19.174    -251.535    -291.479
  H       11.528    -249.054    -289.064
  H       12.335    -247.530    -288.782
  H       11.219    -248.160    -287.594

 3  4  5  6  7  8  9  10  11  12  13  24  28  29  30  31  32 0
 6-311+G(2d,p)
 ****
 33  34 0
 6-311+G(2d,p)
 ****
 1  2  14  15  16  17  18  19  20  21  22  23  25  26  27 0
 3-21G
 ****
 35  36  37  38  39  40  41  42  43  44  45 0
 3-21G
 ****


