%nproc=1
%NoSave
%Mem=1900MB
#P OB98/GEN NMR

erre ene a

0 1
  C     -190.981     121.566     183.189
  O     -189.691     122.154     183.225
  P     -188.473     121.239     183.732
  C     -189.040     121.801     186.205
  O     -188.838     120.786     185.230
  C     -188.740     121.285     187.614
  O     -188.524     122.416     188.494
  C     -189.853     120.424     188.215
  O     -189.239     119.385     188.981
  C     -190.566     121.374     189.156
  O     -191.249     120.675     190.194
  C     -189.402     122.260     189.628
  N     -189.859     123.551     190.132
  C     -190.605     123.540     191.316
  O     -190.914     122.468     191.840
  N     -191.024     124.735     191.846
  C     -190.812     125.835     191.194
  N     -191.244     126.993     191.762
  C     -190.138     125.878     189.881
  C     -189.674     124.716     189.425
  O     -187.295     122.299     183.946
  O     -188.087     120.141     182.795
  H     -191.952     120.123     189.780
  H     -186.426     121.894     183.762
  H     -190.019     126.819     189.359
  H     -189.148     124.655     188.481
  H     -188.830     121.759     190.421
  H     -191.301     121.971     188.601
  H     -190.506     119.985     187.454
  H     -187.801     120.718     187.578
  H     -191.715     126.937     192.655
  H     -190.084     122.122     186.174
  H     -191.125     127.899     191.326
  H     -188.411     122.665     185.967
  P     -189.398     117.878     188.452
  C     -191.213     117.405     190.207
  O     -190.901     117.464     188.827
  O     -188.559     117.067     189.553
  O     -188.930     117.558     187.072
  H     -188.522     116.122     189.308
  H     -192.290     117.248     190.315
  H     -190.939     118.340     190.701
  H     -190.687     116.565     190.672
  H     -191.690     122.284     182.834
  H     -191.256     121.249     184.173
  H     -190.970     120.721     182.532

 3  4  5  6  7  8  9  10  11  12  13  21  23  27  28  29  30  32 0
 6-311+G(2d,p)
 ****
 34  35 0
 6-311+G(2d,p)
 ****
 1  2  14  15  16  17  18  19  20  22  24  25  26 0
 3-21G
 ****
 31  33  36  37  38  39  40  41  42  43  44  45  46 0
 3-21G
 ****


