%nproc=1
%NoSave
%Mem=1900MB
#P OB98/GEN NMR

erre ene a

0 1
  C      159.455    -698.429     843.181
  O      160.394    -697.494     842.714
  H      159.368    -699.235     842.448
  H      158.474    -697.951     843.290
  H      159.769    -698.843     844.132
  P      160.745    -696.259     843.687
  C      158.866    -694.691     842.806
  O      159.369    -695.457     843.905
  C      158.508    -693.273     843.263
  O      157.393    -693.341     844.196
  C      159.665    -692.525     843.974
  O      159.576    -691.147     843.618
  C      159.296    -692.673     845.441
  O      159.910    -691.675     846.266
  C      157.776    -692.571     845.348
  N      157.008    -691.567     850.225
  C      157.666    -690.831     849.246
  N      158.210    -689.662     849.649
  N      157.781    -691.230     848.021
  C      157.166    -692.413     847.763
  C      156.479    -693.228     848.628
  C      156.378    -692.790     850.013
  O      155.817    -693.400     850.926
  N      156.017    -694.344     848.000
  C      156.431    -694.212     846.749
  N      157.125    -693.065     846.550
  O      161.599    -695.291     842.729
  O      161.487    -696.609     844.927
  H      159.887    -691.988     847.186
  H      162.556    -695.472     842.826
  H      156.951    -691.216     851.165
  H      156.240    -694.932     845.950
  H      157.434    -691.540     845.200
  H      159.602    -693.665     845.799
  H      158.120    -689.278     850.571
  H      160.654    -692.911     843.734
  H      158.662    -689.095     848.928
  H      158.161    -692.711     842.383
  H      157.958    -695.180     842.418
  H      159.624    -694.647     842.014
  P      160.412    -690.632     842.339
  C      162.469    -689.444     843.412
  O      161.960    -690.595     842.748
  O      160.013    -689.081     842.277
  O      160.069    -691.339     841.080
  H      160.093    -688.759     841.362
  H      163.511    -689.580     843.613
  H      161.944    -689.302     844.333
  H      162.335    -688.584     842.789

 6  7  8  9  10  11  12  13  14  15  26  29  33  34 0
 6-311+G(2d,p)
 ****
 36  38  39  40  41 0
 6-311+G(2d,p)
 ****
 1  2  3  4  5  16  17  18  19  20  21  22  23  24  25 0
 3-21G
 ****
 27  28  30  31  32  35  37  42  43  44  45  46  47 0
 3-21G
 ****
 48  49 0
 3-21G
 ****


