%nproc=1
%NoSave
%Mem=1900MB
#P OB98/GEN NMR

erre ene a

0 1
  C     -111.165     289.535    -117.619
  O     -110.800     290.852    -118.012
  P     -111.884     291.720    -118.817
  C     -110.794     290.919    -121.026
  O     -111.997     291.065    -120.282
  C     -111.086     290.858    -122.521
  O     -109.831     290.973    -123.251
  C     -111.768     289.559    -122.980
  O     -112.817     289.873    -123.910
  C     -110.674     288.833    -123.745
  O     -111.205     287.932    -124.715
  C     -109.914     290.022    -124.333
  N     -106.952     290.158    -128.430
  C     -108.153     290.794    -128.188
  N     -108.668     291.518    -129.205
  N     -108.803     290.719    -127.053
  C     -108.156     289.982    -126.116
  C     -106.959     289.313    -126.229
  C     -106.285     289.353    -127.513
  O     -105.262     288.741    -127.814
  N     -106.621     288.689    -125.055
  C     -107.613     288.976    -124.233
  N     -108.593     289.717    -124.841
  O     -111.114     293.098    -119.076
  O     -113.175     291.944    -118.107
  H     -111.528     288.474    -125.457
  H     -111.637     293.840    -118.716
  H     -106.503     290.232    -129.328
  H     -107.679     288.643    -123.203
  H     -110.487     290.481    -125.150
  H     -110.056     288.264    -123.043
  H     -108.204     291.647    -130.091
  H     -112.173     288.951    -122.160
  H     -109.537     292.010    -129.041
  H     -111.695     291.732    -122.798
  H     -110.285     289.998    -120.721
  H     -110.140     291.773    -120.805
  P     -114.256     289.235    -123.593
  C     -113.706     287.199    -125.130
  O     -114.100     287.661    -123.848
  O     -115.160     289.734    -124.817
  O     -114.816     289.631    -122.266
  H     -116.103     289.747    -124.563
  H     -113.387     288.020    -125.784
  H     -114.549     286.682    -125.597
  H     -112.873     286.497    -125.015
  H     -110.350     289.080    -117.095
  H     -111.399     288.955    -118.488
  H     -112.021     289.578    -116.978

 3  4  5  6  7  8  9  10  11  12  23  26  30  31  33  0
 6-311+G(2d,p)
 ****
 35  36  37  38 0
 6-311+G(2d,p)
 ****
 1  2  13  14  15  16  17  18  19  20  21  22  24  25  27  28  29 0
 3-21G
 ****
 32  34  39  40  41  42  43  44  45  46  47  48  49 0
 3-21G
 ****


