%nproc=1
%NoSave
%Mem=1900MB
#P OB98/GEN NMR

erre ene a

0 1
  C     -204.787     739.333    -391.627
  O     -203.926     740.207    -390.885
  P     -204.366     741.740    -390.750
  C     -203.634     742.075    -388.283
  O     -203.443     742.449    -389.644
  C     -202.747     740.884    -387.897
  O     -201.343     741.177    -388.164
  C     -202.845     740.499    -386.421
  O     -202.612     739.094    -386.304
  C     -201.665     741.237    -385.808
  O     -201.310     740.698    -384.538
  C     -200.630     741.062    -386.920
  N     -196.700     742.651    -384.181
  C     -197.595     741.626    -383.946
  N     -197.389     740.890    -382.834
  N     -198.597     741.344    -384.736
  C     -198.660     742.140    -385.830
  C     -197.841     743.194    -386.169
  C     -196.750     743.512    -385.273
  O     -195.938     744.419    -385.424
  N     -198.243     743.781    -387.343
  C     -199.304     743.079    -387.709
  N     -199.575     742.060    -386.843
  O     -205.799     741.638    -390.036
  O     -204.464     742.462    -392.056
  H     -200.436     741.074    -384.296
  H     -206.497     741.857    -390.671
  H     -195.950     742.833    -383.539
  H     -199.905     743.271    -388.586
  H     -200.145     740.082    -386.885
  H     -201.921     742.293    -385.669
  H     -196.606     741.024    -382.213
  H     -203.794     740.749    -385.939
  H     -198.005     740.103    -382.662
  H     -203.021     740.026    -388.520
  H     -204.681     741.816    -388.104
  H     -203.427     742.947    -387.649
  P     -203.860     738.180    -385.899
  C     -203.192     735.975    -387.086
  O     -203.330     736.667    -385.870
  O     -204.801     738.222    -387.196
  O     -204.595     738.626    -384.670
  H     -205.730     738.055    -386.947
  H     -202.131     735.936    -387.361
  H     -203.748     736.454    -387.904
  H     -203.558     734.961    -386.963
  H     -204.372     738.347    -391.635
  H     -204.878     739.690    -392.632
  H     -205.753     739.310    -391.168

 3  4  5  6  7  8  9  10  11  12  23  26  30  31 0
 6-311+G(2d,p)
 ****
 33  35  36  37  38 0
 6-311+G(2d,p)
 ****
 1  2  13  14  15  16  17  18  19  20  21  22  24  25 0
 3-21G
 ****
 27  28  29  32  34  39  40  41  42  43  44  45  46  47  48  49 0
 3-21G
 ****


