%nproc=1
%NoSave
%Mem=1900MB
#P OB98/GEN NMR

erre ene a

0 1
  C      135.223     -95.029     650.543
  O      134.511     -93.941     651.104
  H      136.278     -94.752     650.459
  H      134.840     -95.252     649.545
  H      135.141     -95.914     651.183
  P      132.949     -94.176     651.397
  C      132.557     -92.951     649.141
  O      132.155     -93.107     650.496
  C      132.111     -91.594     648.599
  O      130.660     -91.500     648.692
  C      132.696     -90.387     649.346
  O      132.920     -89.339     648.396
  C      131.554     -89.964     650.259
  O      131.664     -88.610     650.687
  C      130.363     -90.250     649.344
  N      125.949     -87.926     650.013
  C      126.992     -87.639     649.154
  N      126.836     -86.575     648.338
  N      128.093     -88.343     649.086
  C      128.095     -89.408     649.935
  C      127.136     -89.787     650.835
  C      125.931     -88.989     650.906
  O      124.983     -89.180     651.667
  N      127.527     -90.909     651.528
  C      128.728     -91.196     651.046
  N      129.112     -90.313     650.076
  O      132.787     -93.614     652.885
  O      132.480     -95.588     651.274
  H      132.525     -88.515     651.151
  H      132.881     -94.336     653.532
  H      125.125     -87.345     650.030
  H      129.348     -92.025     651.366
  H      130.239     -89.483     648.567
  H      131.524     -90.606     651.151
  H      125.998     -86.010     648.298
  H      133.623     -90.600     649.893
  H      127.572     -86.372     647.665
  H      132.357     -91.552     647.526
  H      132.099     -93.747     648.543
  H      133.645     -93.038     649.078
  P      134.420     -89.085     647.895
  C      134.878     -87.455     649.871
  O      134.910     -87.670     648.469
  O      134.230     -88.789     646.326
  O      135.352     -90.235     648.128
  H      135.031     -89.048     645.841
  H      135.234     -86.470     650.089
  H      135.503     -88.175     650.357
  H      133.873     -87.558     650.225

 6  7  8  9  10  11  12  13  14  15  26  29  33  34 0
 6-311+G(2d,p)
 ****
 36  38  39  40  41 0
 6-311+G(2d,p)
 ****
 1  2  3  4  5  16  17  18  19  20  21  22  23  24  25 0
 3-21G
 ****
 27  28  30  31  32  35  37  42  43  44  45  46  47 0
 3-21G
 ****
 48  49 0
 3-21G
 ****


