%nproc=1
%NoSave
%Mem=1900MB
#P OB98/GEN NMR

erre ene a

0 1
  C       98.254     720.607     -72.714
  O       96.959     720.635     -72.149
  H       98.960     720.140     -72.022
  H       98.222     720.013     -73.633
  H       98.585     721.619     -72.959
  P       96.786     721.468     -70.787
  C       94.902     719.813     -70.102
  O       95.293     721.166     -70.279
  C       93.385     719.704     -70.164
  O       92.786     720.433     -69.068
  C       92.765     720.281     -71.433
  O       92.839     719.379     -72.527
  C       91.331     720.480     -70.975
  O       90.644     719.215     -70.973
  C       91.524     720.985     -69.541
  N       88.990     725.159     -68.010
  C       88.662     723.848     -67.996
  N       89.392     722.798     -68.429
  C       90.575     723.210     -68.908
  C       91.045     724.508     -68.995
  C       90.194     725.515     -68.506
  N       90.523     726.854     -68.533
  N       92.298     724.537     -69.584
  C       92.586     723.272     -69.818
  N       91.574     722.432     -69.440
  O       96.703     722.989     -71.283
  O       97.848     721.261     -69.760
  H       89.738     719.390     -70.651
  H       96.920     723.593     -70.549
  H       87.683     723.613     -67.588
  H       93.509     722.919     -70.257
  H       90.740     720.633     -68.860
  H       90.764     721.151     -71.624
  H       93.202     721.255     -71.687
  H       93.115     718.644     -70.047
  H       95.252     719.463     -69.127
  H       89.776     727.504     -68.331
  H       91.350     727.140     -69.036
  H       95.363     719.198     -70.884
  P       93.365     719.958     -73.926
  C       91.427     718.643     -75.051
  O       92.816     718.959     -75.044
  O       94.932     719.651     -73.880
  O       93.079     721.411     -74.148
  H       95.430     720.278     -74.436
  H       91.219     717.967     -75.854
  H       90.858     719.539     -75.183
  H       91.161     718.185     -74.121

 6  7  8  9  10  11  12  13  14  15  25  28  32  33  34  35 0
 6-311+G(2d,p)
 ****
 36  39  40 0
 6-311+G(2d,p)
 ****
 1  2  3  4  5  16  17  18  19  20  21  22  23  24 0
 3-21G
 ****
 26  27  29  30  31  37  38  41  42  43  44  45  46  47 0
 3-21G
 ****
 48 0
 3-21G
 ****


