%nproc=1
%NoSave
%Mem=1900MB
#P OB98/GEN NMR

erre ene a

0 1
  C      -45.549     -49.399     196.790
  O      -45.242     -48.042     197.081
  P      -45.329     -47.493     198.588
  C      -44.091     -47.996     200.785
  O      -44.426     -48.470     199.484
  C      -44.217     -49.113     201.818
  O      -45.609     -49.501     201.920
  C      -43.419     -50.365     201.460
  O      -42.905     -50.948     202.663
  C      -44.454     -51.318     200.880
  O      -44.044     -52.687     201.036
  C      -45.706     -50.916     201.662
  N      -49.489     -54.271     200.754
  C      -48.425     -54.322     201.582
  N      -47.449     -53.404     201.757
  C      -47.673     -52.318     200.995
  C      -48.715     -52.124     200.102
  C      -49.658     -53.163     199.987
  N      -50.746     -53.107     199.149
  N      -48.600     -50.897     199.472
  C      -47.519     -50.358     199.997
  N      -46.929     -51.176     200.929
  O      -46.712     -47.279     199.103
  O      -44.489     -46.134     198.570
  H      -44.790     -53.246     200.738
  H      -44.914     -45.461     199.133
  H      -48.345     -55.215     202.196
  H      -47.117     -49.390     199.729
  H      -45.764     -51.436     202.627
  H      -44.569     -51.123     199.805
  H      -42.602     -50.162     200.757
  H      -43.912     -48.724     202.794
  H      -44.781     -47.186     201.044
  H      -51.432     -53.847     199.222
  H      -50.967     -52.218     198.711
  H      -43.072     -47.594     200.774
  P      -41.733     -52.039     202.471
  C      -39.318     -51.851     201.510
  O      -40.595     -51.271     201.645
  O      -42.247     -53.319     201.900
  O      -41.164     -52.146     203.964
  H      -41.344     -51.331     204.479
  H      -38.675     -51.164     200.953
  H      -39.385     -52.794     200.958
  H      -38.873     -52.033     202.495
  H      -45.435     -49.573     195.741
  H      -46.559     -49.606     197.078
  H      -44.885     -50.039     197.332

 3  4  5  6  7  8  9  10  11  12  22  25  29  30  31  32 0
 6-311+G(2d,p)
 ****
 33  36  37 0
 6-311+G(2d,p)
 ****
 1  2  13  14  15  16  17  18  19  20  21  23  24  26 0
 3-21G
 ****
 27  28  34  35  38  39  40  41  42  43  44  45  46  47  48 0
 3-21G
 ****


