%nproc=1
%NoSave
%Mem=1900MB
#P OB98/GEN NMR

erre ene a

0 1
  C     -283.958     362.227     148.383
  O     -284.982     361.801     147.509
  H     -283.039     361.661     148.191
  H     -283.758     363.287     148.206
  H     -284.266     362.096     149.424
  P     -285.402     360.253     147.610
  C     -283.771     358.943     146.082
  O     -284.058     359.394     147.397
  C     -282.486     358.113     146.076
  O     -282.619     357.067     147.074
  C     -282.174     357.447     144.723
  O     -280.819     357.711     144.335
  C     -282.315     355.957     145.001
  O     -281.400     355.166     144.256
  C     -282.065     355.874     146.504
  N     -282.398     350.802     146.117
  C     -281.466     351.672     145.666
  N     -281.380     353.002     145.892
  C     -282.384     353.412     146.697
  C     -283.392     352.638     147.246
  C     -283.387     351.278     146.915
  N     -284.367     350.396     147.327
  N     -284.244     353.417     148.010
  C     -283.777     354.649     147.883
  N     -282.664     354.696     147.085
  O     -286.222     360.011     146.251
  O     -286.214     359.907     148.811
  H     -280.507     355.515     144.438
  H     -287.134     359.750     146.483
  H     -280.687     351.248     145.040
  H     -284.231     355.538     148.311
  H     -280.990     355.862     146.740
  H     -283.333     355.645     144.754
  H     -282.852     357.769     143.929
  H     -281.654     358.757     146.390
  H     -283.636     359.810     145.412
  H     -284.357     349.466     146.944
  H     -285.168     350.768     147.817
  H     -284.617     358.348     145.718
  P     -280.581     359.056     143.479
  C     -280.710     357.612     141.309
  O     -281.131     358.804     141.984
  O     -278.990     359.099     143.304
  O     -281.093     360.292     144.140
  H     -278.640     359.944     143.650
  H     -281.150     357.580     140.334
  H     -281.021     356.756     141.870
  H     -279.644     357.611     141.219

 6  7  8  9  10  11  12  13  14  15  25  28  32  33  34  35 0
 6-311+G(2d,p)
 ****
 36  39  40 0
 6-311+G(2d,p)
 ****
 1  2  3  4  5  16  17  18  19  20  21  22  23  24 0
 3-21G
 ****
 26  27  29  30  31  37  38  41  42  43  44  45  46  47  48 0
 3-21G
 ****


