%nproc=1
%NoSave
%Mem=1900MB
#P OB98/GEN NMR

erre ene a

0 1
  C     -406.154    -680.239    -187.007
  O     -406.547    -679.594    -188.206
  H     -405.864    -681.268    -187.243
  H     -406.985    -680.263    -186.297
  H     -405.298    -679.719    -186.566
  P     -407.111    -678.100    -188.070
  C     -405.902    -676.998    -190.095
  O     -407.129    -677.473    -189.550
  C     -406.092    -676.705    -191.584
  O     -406.070    -677.940    -192.335
  C     -407.426    -676.048    -191.923
  O     -407.436    -674.654    -191.643
  C     -407.517    -676.339    -193.412
  O     -406.805    -675.368    -194.189
  C     -406.866    -677.730    -193.523
  N     -407.863    -678.782    -193.709
  C     -407.605    -679.676    -194.750
  O     -406.613    -679.607    -195.475
  N     -408.558    -680.640    -194.956
  C     -409.734    -680.764    -194.273
  O     -410.570    -681.614    -194.550
  C     -409.962    -679.780    -193.201
  C     -409.031    -678.844    -192.971
  O     -405.918    -677.319    -187.342
  O     -408.397    -677.975    -187.326
  H     -406.159    -677.144    -186.416
  H     -406.984    -675.583    -195.124
  H     -408.395    -681.300    -195.701
  H     -410.883    -679.846    -192.640
  H     -409.177    -678.102    -192.193
  H     -406.175    -677.760    -194.373
  H     -408.557    -676.326    -193.745
  H     -408.240    -676.562    -191.405
  H     -405.254    -676.083    -191.922
  H     -405.129    -677.768    -189.984
  H     -405.596    -676.103    -189.557
  P     -408.763    -673.832    -192.012
  C     -409.183    -672.497    -189.777
  O     -408.707    -672.499    -191.133
  O     -409.880    -674.741    -191.319
  O     -408.929    -673.630    -193.486
  H     -409.522    -675.239    -190.560
  H     -409.063    -671.520    -189.358
  H     -408.622    -673.203    -189.201
  H     -410.218    -672.766    -189.762

 6  7  8  9  10  11  12  13  14  15  16  27  31  32  33  34  35 0
 6-311+G(2d,p)
 ****
 36  37 0
 6-311+G(2d,p)
 ****
 1  2  3  4  5  17  18  19  20  21  22  23  24  25 0
 3-21G
 ****
 26  28  29  30  38  39  40  41  42  43  44  45 0
 3-21G
 ****


