%nproc=1
%NoSave
%Mem=1900MB
#P OB98/GEN NMR

erre ene a

0 1
  C     -113.960     399.586    -176.034
  O     -112.617     399.818    -175.669
  P     -111.937     399.051    -174.433
  C     -111.232     401.193    -173.202
  O     -110.792     400.031    -173.888
  C     -110.172     402.295    -173.232
  O     -109.034     401.898    -172.413
  C     -109.640     402.635    -174.630
  O     -109.352     404.039    -174.622
  C     -108.357     401.830    -174.693
  O     -107.465     402.301    -175.699
  C     -107.857     401.963    -173.250
  N     -106.884     400.934    -172.908
  C     -105.534     401.288    -173.005
  O     -105.215     402.398    -173.430
  N     -104.582     400.364    -172.664
  C     -104.941     399.156    -172.356
  N     -103.955     398.280    -172.024
  C     -106.346     398.704    -172.369
  C     -107.255     399.638    -172.637
  O     -111.490     397.657    -174.722
  O     -113.045     399.139    -173.281
  H     -107.924     402.252    -176.567
  H     -113.767     398.481    -173.447
  H     -106.595     397.675    -172.163
  H     -108.311     399.400    -172.667
  H     -107.396     402.947    -173.087
  H     -108.589     400.785    -174.921
  H     -110.333     402.387    -175.433
  H     -110.604     403.194    -172.766
  H     -103.003     398.639    -172.014
  H     -111.425     400.919    -172.161
  H     -104.132     397.347    -171.693
  H     -112.174     401.550    -173.632
  P     -109.597     404.943    -175.922
  C     -107.323     405.904    -176.596
  O     -108.523     406.130    -175.876
  O     -111.012     405.387    -176.126
  O     -109.090     404.036    -177.141
  H     -109.429     404.400    -177.980
  H     -106.804     406.859    -176.729
  H     -107.530     405.474    -177.581
  H     -106.680     405.226    -176.029
  H     -114.211     400.195    -176.877
  H     -114.600     399.833    -175.213
  H     -114.087     398.555    -176.288

 3  4  5  6  7  8  9  10  11  12  13  23  27  28  29  30  32 0
 6-311+G(2d,p)
 ****
 34  35 0
 6-311+G(2d,p)
 ****
 1  2  14  15  16  17  18  19  20  21  22  24  25  26 0
 3-21G
 ****
 31  33  36  37  38  39  40  41  42  43  44  45  46 0
 3-21G
 ****


