%nproc=1
%NoSave
%Mem=1900MB
#P OB98/GEN NMR

erre ene a

0 1
  C     -685.498     -81.059     472.966
  O     -686.592     -80.181     473.154
  H     -685.879     -82.055     472.741
  H     -684.899     -81.107     473.879
  H     -684.874     -80.723     472.131
  P     -686.277     -78.614     473.263
  C     -687.757     -77.413     475.028
  O     -687.647     -77.899     473.700
  C     -689.222     -77.300     475.428
  O     -689.901     -76.450     474.453
  C     -689.972     -78.643     475.455
  O     -690.922     -78.602     476.537
  C     -690.718     -78.658     474.139
  O     -691.857     -79.494     474.129
  C     -691.065     -77.164     473.985
  N     -691.384     -76.807     472.608
  C     -692.730     -76.903     472.226
  O     -693.653     -77.182     472.971
  N     -692.972     -76.652     470.894
  C     -692.037     -76.353     469.941
  O     -692.323     -76.155     468.763
  C     -690.649     -76.273     470.415
  C     -690.388     -76.508     471.699
  O     -686.106     -78.177     471.731
  O     -685.095     -78.254     474.098
  H     -685.172     -78.269     471.450
  H     -691.546     -80.424     474.081
  H     -693.928     -76.720     470.595
  H     -689.875     -76.053     469.684
  H     -689.376     -76.471     472.074
  H     -691.898     -76.907     474.644
  H     -690.040     -78.983     473.338
  H     -689.320     -79.512     475.581
  H     -689.293     -76.784     476.399
  H     -687.285     -76.421     475.098
  H     -687.226     -78.097     475.708
  P     -691.559     -79.996     477.011
  C     -693.765     -78.864     477.847
  O     -692.609     -79.619     478.158
  O     -690.323     -80.647     477.783
  O     -692.093     -80.809     475.882
  H     -689.780     -79.997     478.258
  H     -694.342     -78.713     478.735
  H     -694.353     -79.392     477.126
  H     -693.474     -77.916     477.445

 6  7  8  9  10  11  12  13  14  15  16  27  31  32  33  34  35 0
 6-311+G(2d,p)
 ****
 36  37 0
 6-311+G(2d,p)
 ****
 1  2  3  4  5  17  18  19  20  21  22  23  24  25 0
 3-21G
 ****
 26  28  29  30  38  39  40  41  42  43  44  45 0
 3-21G
 ****


