%nproc=1
%NoSave
%Mem=1900MB
#P OB98/GEN NMR

erre ene a

0 1
  C      -25.842     744.036    -724.076
  O      -25.175     745.094    -724.747
  P      -24.643     746.366    -723.932
  C      -22.209     746.405    -724.752
  O      -23.476     747.044    -724.818
  C      -21.173     747.126    -725.603
  O      -21.489     746.963    -727.013
  C      -21.090     748.661    -725.346
  O      -19.708     749.036    -725.515
  C      -21.927     749.244    -726.465
  O      -21.633     750.615    -726.730
  C      -21.553     748.287    -727.608
  N      -22.592     750.004    -732.338
  C      -21.527     750.203    -731.505
  N      -21.341     749.723    -730.247
  C      -22.383     748.962    -729.857
  C      -23.534     748.686    -730.584
  C      -23.620     749.214    -731.873
  N      -24.668     748.991    -732.759
  N      -24.405     747.906    -729.816
  C      -23.778     747.744    -728.672
  N      -22.540     748.297    -728.668
  O      -24.266     746.108    -722.514
  O      -25.837     747.418    -724.037
  H      -22.318     750.964    -727.323
  H      -26.303     747.482    -723.175
  H      -20.748     750.831    -731.911
  H      -24.185     747.214    -727.809
  H      -20.572     748.517    -728.044
  H      -22.985     749.178    -726.216
  H      -21.438     748.958    -724.355
  H      -20.187     746.660    -725.445
  H      -22.323     745.378    -725.147
  H      -24.567     749.308    -733.707
  H      -25.306     748.221    -732.538
  H      -21.872     746.331    -723.711
  P      -18.781     749.307    -724.237
  C      -16.768     750.208    -725.513
  O      -17.817     750.534    -724.635
  O      -18.119     748.103    -723.652
  O      -19.818     749.989    -723.182
  H      -19.420     749.944    -722.284
  H      -15.939     749.731    -724.956
  H      -16.397     751.139    -725.984
  H      -17.088     749.533    -726.291
  H      -26.119     743.283    -724.784
  H      -26.720     744.415    -723.596
  H      -25.189     743.612    -723.342

 3  4  5  6  7  8  9  10  11  12  22  25  29  30  31  32 0
 6-311+G(2d,p)
 ****
 33  36  37 0
 6-311+G(2d,p)
 ****
 1  2  13  14  15  16  17  18  19  20  21  23  24  26 0
 3-21G
 ****
 27  28  34  35  38  39  40  41  42  43  44  45  46  47  48 0
 3-21G
 ****


