%nproc=1
%NoSave
%Mem=1900MB
#P OB98/GEN NMR

erre ene a

0 1
  C       21.692     254.628     120.793
  O       20.500     253.941     120.469
  H       21.631     255.668     120.463
  H       21.825     254.612     121.879
  H       22.550     254.137     120.324
  P       20.100     253.880     118.916
  C       18.064     255.463     119.260
  O       18.522     254.174     118.877
  C       16.570     255.574     118.974
  O       16.324     255.430     117.556
  C       15.733     254.493     119.650
  O       15.441     254.798     121.003
  C       14.480     254.527     118.793
  O       13.678     255.666     119.150
  C       15.072     254.708     117.386
  N       13.063     251.042     114.432
  C       12.555     252.202     114.901
  N       13.161     253.133     115.665
  C       14.428     252.780     115.932
  C       15.087     251.634     115.515
  C       14.346     250.731     114.732
  N       14.851     249.532     114.278
  N       16.377     251.609     116.007
  C       16.498     252.731     116.689
  N       15.336     253.456     116.699
  O       20.185     252.322     118.562
  O       20.911     254.734     117.999
  H       14.242     256.456     119.044
  H       20.179     252.192     117.594
  H       11.522     252.406     114.631
  H       17.396     253.055     117.200
  H       14.428     255.309     116.733
  H       13.854     253.640     118.924
  H       16.202     253.506     119.559
  H       16.234     256.574     119.269
  H       18.606     256.222     118.684
  H       14.200     248.891     113.854
  H       15.750     249.226     114.618
  H       18.255     255.616     120.327
  P       14.917     253.600     121.938
  C       12.400     253.772     121.324
  O       13.399     253.953     122.318
  O       15.709     253.844     123.306
  O       15.150     252.232     121.383
  H       15.894     252.998     123.755
  H       11.446     254.047     121.723
  H       12.378     252.745     121.023
  H       12.623     254.387     120.478

 6  7  8  9  10  11  12  13  14  15  25  28  32  33  34  35 0
 6-311+G(2d,p)
 ****
 36  39  40 0
 6-311+G(2d,p)
 ****
 1  2  3  4  5  16  17  18  19  20  21  22  23  24 0
 3-21G
 ****
 26  27  29  30  31  37  38  41  42  43  44  45  46  47 0
 3-21G
 ****
 48 0
 3-21G
 ****


