%nproc=1
%NoSave
%Mem=1900MB
#P OB98/GEN NMR

erre ene a

0 1
  C     -895.600    -899.003    -898.948
  O     -896.620    -898.083    -898.558
  P     -897.020    -898.073    -896.998
  C     -895.160    -896.353    -896.368
  O     -895.690    -897.683    -896.188
  C     -894.480    -895.873    -895.108
  O     -895.470    -895.703    -894.068
  C     -893.390    -896.813    -894.558
  O     -892.320    -896.003    -894.048
  C     -894.080    -897.513    -893.428
  O     -893.120    -898.003    -892.468
  C     -895.020    -896.423    -892.908
  N     -896.140    -896.973    -892.148
  C     -895.950    -897.163    -890.778
  O     -894.850    -896.943    -890.278
  N     -896.990    -897.633    -890.008
  C     -898.090    -897.993    -890.588
  N     -899.110    -898.463    -889.808
  C     -898.280    -897.933    -892.068
  C     -897.300    -897.383    -892.768
  O     -897.210    -899.613    -896.668
  O     -898.250    -897.263    -896.688
  H     -893.640    -898.433    -891.738
  H     -897.900    -899.743    -895.978
  H     -899.220    -898.263    -892.498
  H     -897.360    -897.283    -893.828
  H     -894.460    -895.713    -892.258
  H     -894.640    -898.363    -893.798
  H     -892.990    -897.483    -895.328
  H     -894.040    -894.883    -895.308
  H     -898.930    -898.513    -888.818
  H     -895.990    -895.683    -896.598
  H     -900.000    -898.763    -890.158
  H     -894.470    -896.383    -897.218
  P     -890.880    -896.143    -894.738
  C     -891.090    -894.003    -896.148
  O     -891.040    -895.413    -896.158
  O     -890.890    -897.693    -895.178
  O     -889.670    -895.813    -893.928
  H     -890.030    -897.923    -895.558
  H     -891.050    -893.643    -897.168
  H     -890.260    -893.593    -895.588
  H     -892.040    -893.663    -895.678
  H     -895.424    -898.915    -900.000
  H     -895.913    -900.000    -898.720
  H     -894.698    -898.782    -898.416

 3  4  5  6  7  8  9  10  11  12  13  21  23  27  28  29  30  32 0
 6-311+G(2d,p)
 ****
 34  35 0
 6-311+G(2d,p)
 ****
 1  2  14  15  16  17  18  19  20  22  24  25  26 0
 3-21G
 ****
 31  33  36  37  38  39  40  41  42  43  44  45  46 0
 3-21G
 ****


