%nproc=1
%NoSave
%Mem=1900MB
#P OB98/GEN NMR

erre ene a

0 1
  C      429.113     827.598     279.103
  O      429.748     827.062     277.955
  P      429.252     825.716     277.271
  C      431.637     824.789     277.478
  O      430.263     824.566     277.772
  C      432.522     823.847     278.310
  O      432.716     824.373     279.636
  C      431.954     822.443     278.491
  O      432.130     821.678     277.304
  C      432.745     821.965     279.692
  O      434.040     821.461     279.301
  C      432.888     823.257     280.524
  N      431.964     823.302     281.654
  C      432.451     822.834     282.859
  O      433.616     822.362     282.957
  N      431.621     822.830     283.965
  C      430.400     823.253     283.828
  N      429.616     823.217     284.947
  C      429.832     823.729     282.547
  C      430.660     823.722     281.517
  O      429.017     825.780     275.800
  O      427.907     825.374     278.114
  H      434.526     822.207     278.898
  H      427.167     825.975     277.860
  H      428.803     824.052     282.493
  H      430.326     824.059     280.533
  H      433.909     823.340     280.928
  H      432.238     821.142     280.214
  H      430.895     822.517     278.744
  H      433.516     823.785     277.806
  H      430.032     822.860     285.800
  H      431.894     825.809     277.722
  H      428.640     823.475     284.959
  H      431.817     824.629     276.406
  P      431.386     820.272     277.160
  C      433.607     818.987     276.999
  O      432.394     819.137     277.701
  O      430.771     820.014     275.830
  O      430.252     820.321     278.301
  H      429.418     819.982     277.925
  H      434.321     818.456     277.641
  H      434.039     819.969     276.747
  H      433.434     818.405     276.090
  H      429.606     828.502     279.394
  H      429.166     826.890     279.903
  H      428.088     827.807     278.879

 3  4  5  6  7  8  9  10  11  12  13  23  27  28  29  30  32 0
 6-311+G(2d,p)
 ****
 34  35 0
 6-311+G(2d,p)
 ****
 1  2  14  15  16  17  18  19  20  21  22  24  25  26 0
 3-21G
 ****
 31  33  36  37  38  39  40  41  42  43  44  45  46 0
 3-21G
 ****


