%nproc=1
%NoSave
%Mem=1900MB
#P OB98/GEN NMR

erre ene a

0 1
  C     -268.055    -517.794    -524.990
  O     -266.806    -517.246    -525.372
  H     -267.879    -518.632    -524.306
  H     -268.592    -518.159    -525.866
  H     -268.657    -517.038    -524.473
  P     -266.851    -516.066    -526.460
  C     -266.457    -514.199    -524.676
  O     -267.348    -514.794    -525.613
  C     -266.003    -512.836    -525.192
  O     -267.137    -511.970    -525.414
  C     -265.092    -512.076    -524.226
  O     -263.747    -512.547    -524.252
  C     -265.211    -510.673    -524.790
  O     -264.420    -510.557    -525.987
  C     -266.730    -510.606    -525.113
  N     -267.525    -510.054    -524.011
  C     -268.402    -509.010    -524.330
  O     -268.472    -508.579    -525.485
  N     -269.150    -508.450    -523.325
  C     -269.047    -508.902    -522.113
  N     -269.805    -508.298    -521.153
  C     -268.153    -510.007    -521.739
  C     -267.431    -510.530    -522.723
  O     -268.137    -516.413    -527.344
  O     -265.597    -515.852    -527.249
  H     -263.487    -510.586    -525.711
  H     -268.324    -515.674    -527.975
  H     -268.095    -510.340    -520.706
  H     -266.746    -511.349    -522.516
  H     -266.906    -510.001    -526.013
  H     -264.862    -509.899    -524.100
  H     -265.492    -512.081    -523.210
  H     -265.511    -512.990    -526.168
  H     -270.370    -507.497    -521.426
  H     -265.597    -514.864    -524.545
  H     -269.662    -508.455    -520.161
  H     -266.958    -514.077    -523.712
  P     -262.878    -512.367    -522.912
  C     -263.401    -514.660    -521.785
  O     -263.593    -513.252    -521.771
  O     -263.191    -510.865    -522.471
  O     -261.404    -512.610    -523.082
  H     -262.396    -510.426    -522.113
  H     -263.936    -515.101    -520.970
  H     -262.358    -514.879    -521.687
  H     -263.764    -515.060    -522.709

 6  7  8  9  10  11  12  13  14  15  16  26  30  31  32  33  35 0
 6-311+G(2d,p)
 ****
 37  38 0
 6-311+G(2d,p)
 ****
 1  2  3  4  5  17  18  19  20  21  22  23  24  25 0
 3-21G
 ****
 27  28  29  34  36  39  40  41  42  43  44  45  46 0
 3-21G
 ****


