%nproc=1
%NoSave
%Mem=1900MB
#P OB98/GEN NMR

erre ene a

0 1
  C     -239.513    -408.893    -383.061
  O     -240.542    -409.850    -382.852
  P     -241.763    -409.447    -381.887
  C     -240.652    -410.368    -379.724
  O     -241.172    -409.240    -380.406
  C     -241.772    -411.346    -379.358
  O     -241.191    -412.579    -378.845
  C     -242.721    -410.811    -378.278
  O     -244.047    -411.316    -378.528
  C     -242.222    -411.470    -377.005
  O     -243.244    -411.538    -376.017
  C     -241.768    -412.825    -377.539
  N     -241.205    -416.080    -373.712
  C     -242.297    -415.856    -374.521
  N     -243.420    -416.546    -374.208
  N     -242.292    -415.056    -375.545
  C     -241.096    -414.433    -375.738
  C     -239.937    -414.580    -375.007
  C     -239.960    -415.469    -373.864
  O     -239.036    -415.689    -373.095
  N     -238.920    -413.811    -375.518
  C     -239.476    -413.164    -376.531
  N     -240.806    -413.481    -376.680
  O     -242.583    -410.818    -381.774
  O     -242.621    -408.339    -382.401
  H     -242.841    -411.926    -375.213
  H     -243.397    -410.761    -382.310
  H     -241.262    -416.708    -372.924
  H     -238.970    -412.447    -377.167
  H     -242.616    -413.512    -377.684
  H     -241.383    -410.893    -376.592
  H     -243.519    -417.132    -373.388
  H     -242.756    -409.715    -378.204
  H     -244.263    -416.369    -374.759
  H     -242.326    -411.607    -380.265
  H     -240.148    -410.044    -378.819
  H     -239.907    -410.870    -380.368
  P     -245.247    -410.534    -377.784
  C     -245.410    -412.187    -375.778
  O     -245.107    -410.886    -376.232
  O     -246.551    -411.347    -378.240
  O     -245.332    -409.079    -378.124
  H     -247.342    -410.773    -378.202
  H     -244.499    -412.642    -375.369
  H     -245.795    -412.822    -376.575
  H     -246.162    -412.120    -374.986
  H     -238.775    -409.301    -383.720
  H     -239.058    -408.648    -382.124
  H     -239.931    -408.009    -383.496

 3  4  5  6  7  8  9  10  11  12  23  26  30  31 0
 6-311+G(2d,p)
 ****
 33  35  36  37  38 0
 6-311+G(2d,p)
 ****
 1  2  13  14  15  16  17  18  19  20  21  22  24  25 0
 3-21G
 ****
 27  28  29  32  34  39  40  41  42  43  44  45  46  47  48  49 0
 3-21G
 ****


