%nproc=1
%NoSave
%Mem=1900MB
#P OB98/GEN NMR

erre ene a

0 1
  C     -194.593     -31.756    -239.591
  O     -196.010     -31.833    -239.422
  P     -196.540     -33.012    -238.469
  C     -198.365     -34.217    -239.858
  O     -198.081     -33.274    -238.838
  C     -199.873     -34.468    -239.972
  O     -200.390     -35.071    -238.748
  C     -200.693     -33.190    -240.223
  O     -201.786     -33.562    -241.071
  C     -201.183     -32.848    -238.826
  O     -202.260     -31.926    -238.821
  C     -201.495     -34.250    -238.310
  N     -204.890     -34.464    -234.512
  C     -205.037     -34.392    -235.852
  N     -204.079     -34.333    -236.801
  C     -202.859     -34.365    -236.238
  C     -202.550     -34.435    -234.889
  C     -203.638     -34.488    -233.999
  N     -203.499     -34.541    -232.633
  N     -201.176     -34.422    -234.700
  C     -200.681     -34.272    -235.915
  N     -201.651     -34.315    -236.878
  O     -196.599     -32.326    -237.025
  O     -195.675     -34.228    -238.488
  H     -202.517     -31.722    -237.899
  H     -195.814     -32.566    -236.501
  H     -206.064     -34.373    -236.211
  H     -199.636     -34.127    -236.152
  H     -202.410     -34.659    -238.755
  H     -200.363     -32.401    -238.254
  H     -200.123     -32.390    -240.702
  H     -200.043     -35.184    -240.785
  H     -197.863     -35.164    -239.646
  H     -204.339     -34.570    -232.076
  H     -202.582     -34.548    -232.210
  H     -197.951     -33.856    -240.805
  P     -201.547     -33.635    -242.655
  C     -202.977     -31.575    -243.195
  O     -202.868     -32.982    -243.294
  O     -201.812     -35.194    -242.920
  O     -200.228     -33.146    -243.148
  H     -202.647     -35.484    -242.514
  H     -203.872     -31.255    -243.734
  H     -202.102     -31.094    -243.641
  H     -203.072     -31.280    -242.147
  H     -194.355     -30.940    -240.241
  H     -194.235     -32.669    -240.019
  H     -194.128     -31.602    -238.640

 3  4  5  6  7  8  9  10  11  12  22  25  29  30  31  32 0
 6-311+G(2d,p)
 ****
 33  36  37 0
 6-311+G(2d,p)
 ****
 1  2  13  14  15  16  17  18  19  20  21  23  24  26 0
 3-21G
 ****
 27  28  34  35  38  39  40  41  42  43  44  45  46  47  48 0
 3-21G
 ****


