%nproc=1
%NoSave
%Mem=1900MB
#P OB98/GEN NMR

erre ene a

0 1
  C      -25.076       8.922     -37.533
  O      -25.713       9.226     -36.309
  H      -25.294       9.718     -38.250
  H      -25.465       7.978     -37.928
  H      -23.994       8.853     -37.400
  P      -25.354       8.289     -35.057
  C      -26.776       6.217     -35.712
  O      -26.618       7.323     -34.834
  C      -27.492       5.076     -34.996
  O      -26.680       4.577     -33.910
  C      -28.834       5.462     -34.383
  O      -29.881       5.435     -35.344
  C      -29.002       4.350     -33.358
  O      -29.419       3.139     -34.017
  C      -27.572       4.199     -32.823
  N      -26.370       4.171     -27.895
  C      -26.600       3.118     -28.760
  N      -26.509       1.879     -28.231
  N      -26.902       3.264     -30.024
  C      -26.970       4.560     -30.410
  C      -26.762       5.690     -29.651
  C      -26.422       5.514     -28.257
  O      -26.184       6.412     -27.454
  N      -26.909       6.830     -30.396
  C      -27.228       6.394     -31.598
  N      -27.286       5.022     -31.658
  O      -25.434       9.291     -33.808
  O      -24.029       7.611     -35.124
  H      -28.650       2.810     -34.516
  H      -24.747       9.041     -33.160
  H      -26.154       4.005     -26.929
  H      -27.424       7.025     -32.456
  H      -27.337       3.164     -32.549
  H      -29.758       4.584     -32.606
  H      -26.329       1.698     -27.256
  H      -28.777       6.429     -33.868
  H      -26.641       1.089     -28.852
  H      -27.619       4.253     -35.714
  H      -25.790       5.876     -36.044
  H      -27.356       6.537     -36.585
  P      -30.055       6.726     -36.288
  C      -31.685       8.009     -34.726
  O      -31.513       7.310     -35.952
  O      -30.240       6.082     -37.744
  O      -28.928       7.698     -36.241
  H      -29.995       6.734     -38.429
  H      -32.700       8.336     -34.641
  H      -31.034       8.858     -34.705
  H      -31.451       7.359     -33.909

 6  7  8  9  10  11  12  13  14  15  26  29  33  34 0
 6-311+G(2d,p)
 ****
 36  38  39  40  41 0
 6-311+G(2d,p)
 ****
 1  2  3  4  5  16  17  18  19  20  21  22  23  24  25 0
 3-21G
 ****
 27  28  30  31  32  35  37  42  43  44  45  46  47 0
 3-21G
 ****
 48  49 0
 3-21G
 ****


