%nproc=1
%NoSave
%Mem=1900MB
#P OB98/GEN NMR

erre ene a

0 1
  C      -55.055      70.838    -241.016
  O      -56.477      71.012    -240.976
  P      -57.148      72.422    -240.611
  C      -57.571      73.743    -242.771
  O      -58.144      72.893    -241.784
  C      -58.445      73.885    -244.026
  O      -58.899      72.588    -244.496
  C      -59.698      74.753    -243.846
  O      -59.940      75.366    -245.112
  C      -60.764      73.710    -243.544
  O      -62.089      74.178    -243.749
  C      -60.338      72.596    -244.495
  N      -64.565      69.750    -243.970
  C      -64.354      70.943    -244.568
  N      -63.195      71.618    -244.700
  C      -62.171      70.924    -244.174
  C      -62.231      69.691    -243.541
  C      -63.502      69.101    -243.435
  N      -63.730      67.908    -242.787
  N      -60.978      69.307    -243.099
  C      -60.180      70.295    -243.452
  N      -60.856      71.297    -244.108
  O      -56.173      73.472    -240.184
  O      -58.142      72.082    -239.399
  H      -62.158      74.515    -244.662
  H      -58.035      72.753    -238.699
  H      -65.234      71.419    -244.992
  H      -59.123      70.353    -243.242
  H      -60.673      72.799    -245.522
  H      -60.677      73.404    -242.492
  H      -59.601      75.505    -243.060
  H      -57.811      74.300    -244.822
  H      -56.592      73.336    -243.056
  H      -64.686      67.610    -242.684
  H      -62.975      67.474    -242.275
  H      -57.402      74.731    -242.329
  P      -60.520      76.857    -245.231
  C      -58.503      78.428    -245.123
  O      -59.395      77.728    -245.970
  O      -61.023      77.438    -243.952
  O      -61.682      76.750    -246.328
  H      -62.280      77.518    -246.243
  H      -59.001      79.311    -244.710
  H      -57.635      78.744    -245.702
  H      -58.161      77.789    -244.300
  H      -54.827      69.826    -241.279
  H      -54.641      71.059    -240.054
  H      -54.635      71.499    -241.745

 3  4  5  6  7  8  9  10  11  12  22  25  29  30  31  32 0
 6-311+G(2d,p)
 ****
 33  36  37 0
 6-311+G(2d,p)
 ****
 1  2  13  14  15  16  17  18  19  20  21  23  24  26 0
 3-21G
 ****
 27  28  34  35  38  39  40  41  42  43  44  45  46  47  48 0
 3-21G
 ****


