%nproc=1
%NoSave
%Mem=1900MB
#P OB98/GEN NMR

erre ene a

0 1
  C      -70.436     -32.467    -392.647
  O      -69.425     -31.473    -392.619
  P      -68.005     -31.698    -393.336
  C      -66.759     -32.371    -391.167
  O      -67.241     -32.786    -392.436
  C      -65.510     -33.172    -390.789
  O      -65.870     -34.577    -390.703
  C      -64.353     -33.055    -391.790
  O      -63.136     -33.097    -391.041
  C      -64.507     -34.306    -392.636
  O      -63.305     -34.674    -393.292
  C      -64.992     -35.308    -391.580
  N      -65.671     -36.456    -392.163
  C      -65.019     -37.691    -392.127
  O      -63.894     -37.796    -391.633
  N      -65.655     -38.790    -392.650
  C      -66.806     -38.654    -393.237
  N      -67.423     -39.781    -393.688
  C      -67.478     -37.352    -393.397
  C      -66.873     -36.314    -392.822
  O      -67.230     -30.453    -393.592
  O      -68.350     -32.537    -394.647
  H      -63.451     -35.532    -393.740
  H      -68.622     -31.967    -395.413
  H      -68.421     -37.282    -393.921
  H      -67.309     -35.322    -392.868
  H      -64.149     -35.651    -390.967
  H      -65.271     -34.140    -393.400
  H      -64.387     -32.127    -392.372
  H      -65.185     -32.847    -389.788
  H      -67.012     -40.666    -393.406
  H      -67.537     -32.558    -390.421
  H      -68.421     -39.800    -393.849
  H      -66.547     -31.298    -391.188
  P      -61.833     -32.386    -391.657
  C      -60.545     -34.530    -392.356
  O      -61.218     -33.359    -392.771
  O      -60.775     -32.543    -390.456
  O      -61.974     -30.944    -392.022
  H      -60.108     -31.834    -390.525
  H      -60.198     -35.071    -393.242
  H      -61.219     -35.181    -391.794
  H      -59.673     -34.275    -391.744
  H      -71.295     -32.117    -392.114
  H      -70.070     -33.361    -392.187
  H      -70.706     -32.673    -393.662

 3  4  5  6  7  8  9  10  11  12  13  23  27  28  29  30  32 0
 6-311+G(2d,p)
 ****
 34  35 0
 6-311+G(2d,p)
 ****
 1  2  14  15  16  17  18  19  20  21  22  24  25  26 0
 3-21G
 ****
 31  33  36  37  38  39  40  41  42  43  44  45  46 0
 3-21G
 ****


