%nproc=1
%NoSave
%Mem=1900MB
#P OB98/GEN NMR

erre ene a

0 1
  C      -16.692    -271.567      24.997
  O      -15.823    -270.454      25.128
  H      -16.423    -272.309      25.754
  H      -16.579    -272.018      24.007
  H      -17.727    -271.258      25.154
  P      -16.071    -269.234      24.113
  C      -13.644    -269.292      23.214
  O      -14.623    -268.565      23.944
  C      -12.256    -268.696      23.440
  O      -11.254    -269.473      22.760
  C      -12.094    -267.268      22.927
  O      -12.627    -266.334      23.851
  C      -10.578    -267.171      22.837
  O      -10.030    -266.921      24.148
  C      -10.174    -268.581      22.364
  N       -7.202    -267.268      18.389
  C       -7.240    -266.828      19.667
  N       -8.087    -267.192      20.656
  C       -8.960    -268.110      20.219
  C       -9.042    -268.656      18.948
  C       -8.102    -268.204      18.007
  N       -8.059    -268.664      16.707
  N      -10.073    -269.572      18.873
  C      -10.569    -269.618      20.092
  N       -9.954    -268.727      20.937
  O      -17.189    -268.316      24.467
  O      -16.248    -270.020      22.728
  H       -9.073    -266.770      24.043
  H      -15.633    -270.774      22.681
  H       -6.492    -266.086      19.930
  H      -11.357    -270.288      20.419
  H       -9.262    -268.931      22.860
  H      -10.252    -266.350      22.196
  H      -12.517    -267.154      21.923
  H      -12.039    -268.752      24.516
  H      -13.886    -269.284      22.142
  H       -7.469    -268.169      16.057
  H       -8.805    -269.267      16.393
  H      -13.672    -270.328      23.566
  P      -13.549    -265.120      23.342
  C      -11.704    -263.403      22.840
  O      -12.763    -263.771      23.714
  O      -14.961    -265.161      23.806
  O      -13.441    -265.175      21.748
  H      -14.308    -264.960      21.343
  H      -11.256    -262.494      23.185
  H      -12.090    -263.258      21.853
  H      -10.968    -264.180      22.824

 6  7  8  9  10  11  12  13  14  15  25  28  32  33  34  35 0
 6-311+G(2d,p)
 ****
 36  39  40 0
 6-311+G(2d,p)
 ****
 1  2  3  4  5  16  17  18  19  20  21  22  23  24 0
 3-21G
 ****
 26  27  29  30  31  37  38  41  42  43  44  45  46  47 0
 3-21G
 ****
 48 0
 3-21G
 ****


