%nproc=1
%NoSave
%Mem=1900MB
#P OB98/GEN NMR

erre ene a

0 1
  C       73.085    -406.406     330.859
  O       73.653    -405.833     332.020
  H       73.275    -407.481     330.851
  H       72.005    -406.243     330.878
  H       73.496    -405.946     329.956
  P       75.250    -405.686     332.062
  C       75.459    -403.194     331.368
  O       75.629    -404.553     330.989
  C       75.296    -402.310     330.128
  O       76.561    -402.302     329.406
  C       74.202    -402.773     329.159
  O       73.541    -401.615     328.637
  C       74.984    -403.440     328.041
  O       74.285    -403.436     326.798
  C       76.259    -402.601     328.028
  N       81.128    -402.230     326.602
  C       80.371    -401.478     327.430
  N       79.088    -401.680     327.798
  C       78.618    -402.824     327.276
  C       79.273    -403.697     326.419
  C       80.588    -403.350     326.065
  N       81.348    -404.066     325.171
  N       78.430    -404.729     326.053
  C       77.287    -404.474     326.651
  N       77.349    -403.330     327.401
  O       75.738    -407.047     331.361
  O       75.847    -405.514     333.419
  H       73.362    -403.718     326.959
  H       75.815    -407.750     332.033
  H       80.850    -400.595     327.845
  H       76.380    -405.054     326.554
  H       76.140    -401.655     327.486
  H       75.197    -404.480     328.312
  H       73.462    -403.449     329.610
  H       75.113    -401.282     330.461
  H       76.338    -402.868     331.927
  H       82.238    -403.684     324.898
  H       80.918    -404.841     324.680
  H       74.578    -403.106     332.011
  P       71.979    -401.743     328.307
  C       71.141    -400.081     330.131
  O       71.145    -401.418     329.635
  O       71.771    -403.323     328.122
  O       71.549    -400.988     327.091
  H       71.074    -403.496     327.459
  H       70.543    -400.031     331.017
  H       70.735    -399.426     329.389
  H       72.143    -399.783     330.360

 6  7  8  9  10  11  12  13  14  15  25  28  32  33  34  35 0
 6-311+G(2d,p)
 ****
 36  39  40 0
 6-311+G(2d,p)
 ****
 1  2  3  4  5  16  17  18  19  20  21  22  23  24 0
 3-21G
 ****
 26  27  29  30  31  37  38  41  42  43  44  45  46  47 0
 3-21G
 ****
 48 0
 3-21G
 ****


