%nproc=1
%NoSave
%Mem=1900MB
#P OB98/GEN NMR

erre ene a

0 1
  C      234.821     -61.327    1037.152
  O      235.358     -61.491    1038.448
  P      236.333     -60.372    1039.056
  C      238.392     -59.141    1038.127
  O      237.688     -60.372    1038.190
  C      239.745     -59.337    1037.445
  O      239.574     -59.924    1036.144
  C      240.518     -58.036    1037.220
  O      241.106     -57.577    1038.420
  C      241.514     -58.468    1036.138
  O      242.638     -59.149    1036.739
  C      240.668     -59.468    1035.318
  N      241.706     -58.480    1030.417
  C      242.479     -58.930    1031.440
  N      242.136     -59.135    1032.721
  C      240.861     -58.787    1032.933
  C      239.964     -58.270    1032.007
  C      240.419     -58.139    1030.685
  N      239.630     -57.730    1029.634
  N      238.741     -58.001    1032.612
  C      238.905     -58.336    1033.874
  N      240.153     -58.884    1034.094
  O      236.537     -60.437    1040.531
  O      235.628     -58.994    1038.644
  H      243.155     -59.529    1036.008
  H      235.401     -58.492    1039.453
  H      243.508     -59.181    1031.168
  H      238.166     -58.237    1034.650
  H      241.251     -60.357    1035.031
  H      241.906     -57.638    1035.560
  H      239.851     -57.274    1036.797
  H      240.338     -60.036    1038.060
  H      238.539     -58.785    1039.152
  H      240.015     -57.813    1028.702
  H      238.617     -57.767    1029.746
  H      237.793     -58.404    1037.588
  P      241.976     -56.233    1038.412
  C      243.287     -55.438    1036.336
  O      243.149     -56.440    1037.339
  O      242.406     -55.739    1039.761
  O      241.021     -55.168    1037.687
  H      241.185     -54.282    1038.036
  H      242.517     -55.610    1035.581
  H      244.254     -55.530    1035.884
  H      243.161     -54.442    1036.779
  H      234.198     -62.164    1036.915
  H      235.618     -61.263    1036.441
  H      234.240     -60.429    1037.118

 3  4  5  6  7  8  9  10  11  12  22  25  29  30  31  32 0
 6-311+G(2d,p)
 ****
 33  36  37 0
 6-311+G(2d,p)
 ****
 1  2  13  14  15  16  17  18  19  20  21  23  24  26 0
 3-21G
 ****
 27  28  34  35  38  39  40  41  42  43  44  45  46  47  48 0
 3-21G
 ****


