%nproc=1
%NoSave
%Mem=1900MB
#P OB98/GEN NMR

erre ene a

0 1
  C       -1.644     -39.991     -30.132
  O       -2.884     -39.315     -30.133
  H       -1.828     -41.062     -30.013
  H       -1.028     -39.646     -29.297
  H       -1.119     -39.825     -31.076
  P       -2.838     -37.724     -30.339
  C       -1.760     -36.132     -32.089
  O       -1.887     -37.463     -31.605
  C       -0.374     -35.934     -32.696
  O        0.620     -35.974     -31.648
  C        0.034     -37.016     -33.690
  O       -0.552     -36.814     -34.963
  C        1.549     -36.862     -33.688
  O        1.974     -35.813     -34.569
  C        1.843     -36.474     -32.233
  N        3.166     -38.003     -27.556
  C        2.636     -36.847     -28.012
  N        2.293     -36.525     -29.278
  C        2.541     -37.552     -30.108
  C        3.084     -38.784     -29.790
  C        3.402     -39.000     -28.440
  N        3.973     -40.163     -27.981
  N        3.228     -39.557     -30.925
  C        2.773     -38.809     -31.909
  N        2.343     -37.592     -31.461
  O       -1.958     -37.229     -29.095
  O       -4.167     -37.050     -30.390
  H        1.289     -35.118     -34.525
  H       -2.547     -36.964     -28.364
  H        2.470     -36.079     -27.263
  H        2.743     -39.098     -32.952
  H        2.587     -35.672     -32.161
  H        2.041     -37.779     -34.014
  H       -0.221     -38.007     -33.297
  H       -0.336     -34.942     -33.164
  H       -1.893     -35.431     -31.258
  H       -2.539     -35.951     -32.837
  H        4.197     -40.240     -27.001
  H        4.251     -40.870     -28.648
  P       -0.474     -37.999     -36.037
  C       -1.460     -40.403     -36.145
  O       -1.009     -39.335     -35.327
  O        1.098     -38.253     -36.189
  O       -1.120     -37.697     -37.348
  H        1.437     -37.822     -36.995
  H       -1.782     -41.215     -35.526
  H       -0.661     -40.731     -36.776
  H       -2.278     -40.069     -36.749

 6  7  8  9  10  11  12  13  14  15  25  28  32  33  34  35 0
 6-311+G(2d,p)
 ****
 36  37  40 0
 6-311+G(2d,p)
 ****
 1  2  3  4  5  16  17  18  19  20  21  22  23  24 0
 3-21G
 ****
 26  27  29  30  31  38  39 41  42  43  44  45  46  47  48 0
 3-21G
 ****


