%nproc=1
%NoSave
%Mem=1900MB
#P OB98/GEN NMR

erre ene a

0 1
  C     -330.969    -204.842     -86.126
  O     -332.228    -204.326     -86.526
  P     -332.398    -202.737     -86.626
  C     -332.208    -202.635     -89.216
  O     -331.658    -202.242     -87.966
  C     -332.473    -201.414     -90.097
  O     -332.912    -201.851     -91.413
  C     -333.552    -200.478     -89.542
  O     -333.228    -199.122     -89.893
  C     -334.791    -200.862     -90.326
  O     -335.742    -199.799     -90.361
  C     -334.176    -201.204     -91.686
  N     -338.373    -201.405     -94.489
  C     -337.656    -200.304     -94.062
  N     -338.182    -199.093     -94.349
  N     -336.524    -200.384     -93.415
  C     -336.123    -201.660     -93.190
  C     -336.741    -202.831     -93.582
  C     -337.996    -202.724     -94.286
  O     -338.693    -203.657     -94.668
  N     -336.015    -203.929     -93.206
  C     -334.980    -203.435     -92.550
  N     -335.021    -202.067     -92.484
  O     -331.446    -202.202     -85.455
  O     -333.795    -202.245     -86.447
  H     -335.990    -199.609     -89.436
  H     -331.989    -201.900     -84.701
  H     -339.246    -201.289     -94.976
  H     -334.195    -204.015     -92.088
  H     -333.964    -200.303     -92.269
  H     -335.266    -201.736     -89.867
  H     -339.086    -198.966     -94.783
  H     -333.702    -200.548     -88.461
  H     -337.701    -198.273     -94.007
  H     -331.530    -200.875     -90.243
  H     -333.147    -203.159     -89.043
  H     -331.520    -203.322     -89.719
  P     -333.595    -198.008     -88.792
  C     -331.808    -199.153     -87.286
  O     -333.108    -198.604     -87.390
  O     -335.192    -198.086     -88.707
  O     -333.108    -196.636     -89.125
  H     -335.554    -197.231     -88.401
  H     -331.229    -198.563     -86.575
  H     -331.287    -199.170     -88.247
  H     -331.886    -200.182     -86.912
  H     -331.012    -205.911     -86.107
  H     -330.728    -204.477     -85.150
  H     -330.218    -204.527     -86.820

 3  4  5  6  7  8  9  10  11  12  23  26  30  31 0
 6-311+G(2d,p)
 ****
 33  35  36  37  38 0
 6-311+G(2d,p)
 ****
 1  2  13  14  15  16  17  18  19  20  21  22  24  25 0
 3-21G
 ****
 27  28  29  32  34  39  40  41  42  43  44  45  46  47  48  49 0
 3-21G
 ****


