%nproc=1
%NoSave
%Mem=1900MB
#P OB98/GEN NMR

erre ene a

0 1
  C     -236.305    -229.674      95.931
  O     -235.858    -229.723      97.278
  P     -236.665    -230.557      98.385
  C     -237.128    -228.581      99.966
  O     -236.394    -229.784      99.767
  C     -236.822    -228.008     101.352
  O     -237.185    -229.002     102.342
  C     -235.357    -227.670     101.629
  O     -234.946    -226.392     101.164
  C     -235.352    -227.677     103.157
  O     -235.902    -226.440     103.649
  C     -236.283    -228.846     103.472
  N     -233.624    -231.598     106.876
  C     -234.239    -230.395     106.969
  N     -234.909    -229.728     106.008
  C     -234.954    -230.436     104.867
  C     -234.380    -231.673     104.626
  C     -233.683    -232.266     105.696
  N     -233.077    -233.498     105.612
  N     -234.620    -232.076     103.324
  C     -235.336    -231.096     102.800
  N     -235.569    -230.093     103.694
  O     -236.379    -232.022      98.390
  O     -238.199    -230.229      98.088
  H     -235.243    -225.741     103.490
  H     -238.774    -230.892      98.527
  H     -234.182    -229.913     107.933
  H     -235.698    -231.080     101.785
  H     -236.908    -228.652     104.361
  H     -234.347    -227.762     103.575
  H     -234.684    -228.460     101.259
  H     -237.462    -227.127     101.502
  H     -238.195    -228.813      99.896
  H     -232.719    -233.901     106.458
  H     -233.264    -234.059     104.789
  H     -236.879    -227.862      99.179
  P     -233.769    -226.355     100.067
  C     -232.362    -224.368     101.049
  O     -233.243    -224.832     100.046
  O     -234.132    -226.930      98.750
  O     -232.580    -227.136     100.801
  H     -232.196    -226.695     101.575
  H     -232.007    -223.374     100.766
  H     -231.500    -225.032     101.152
  H     -232.884    -224.299     102.002
  H     -235.635    -229.071      95.355
  H     -237.287    -229.250      95.896
  H     -236.330    -230.665      95.527

 3  4  5  6  7  8  9  10  11  12  22  25  29  30  31  32 0
 6-311+G(2d,p)
 ****
 33  36  37 0
 6-311+G(2d,p)
 ****
 1  2  13  14  15  16  17  18  19  20  21  23  24  26 0
 3-21G
 ****
 27  28  34  35  38  39  40  41  42  43  44  45  46  47  48 0
 3-21G
 ****


