%nproc=1
%NoSave
%Mem=1900MB
#P OB98/GEN NMR

erre ene a

0 1
  C      751.216       2.498     225.757
  O      751.990       2.486     224.577
  H      750.275       3.011     225.555
  H      751.748       3.044     226.539
  H      750.998       1.480     226.093
  P      753.269       1.522     224.553
  C      755.049       3.407     224.501
  O      754.482       2.333     225.235
  C      755.611       4.465     225.457
  O      756.500       5.337     224.706
  C      754.542       5.337     226.117
  O      754.927       5.595     227.469
  C      754.590       6.623     225.315
  O      754.119       7.752     226.059
  C      756.066       6.691     224.944
  N      757.085      11.375     223.378
  C      757.027      10.857     224.653
  N      757.266      11.708     225.676
  N      756.752       9.600     224.920
  C      756.572       8.852     223.802
  C      756.594       9.252     222.482
  C      756.874      10.645     222.214
  O      756.918      11.170     221.106
  N      756.330       8.201     221.646
  C      756.137       7.173     222.450
  N      756.283       7.513     223.762
  O      753.666       1.484     223.005
  O      753.049       0.148     225.090
  H      754.034       8.498     225.430
  H      753.556       0.577     222.656
  H      757.289      12.355     223.240
  H      755.889       6.168     222.135
  H      756.680       7.117     225.749
  H      753.963       6.530     224.418
  H      757.530      12.672     225.547
  H      753.548       4.881     226.102
  H      757.263      11.339     226.621
  H      756.229       3.956     226.207
  H      754.268       3.861     223.875
  H      755.848       3.026     223.854
  P      754.237       4.693     228.606
  C      752.636       6.385     229.740
  O      752.762       5.270     228.876
  O      755.039       5.096     229.934
  O      754.312       3.228     228.351
  H      755.627       4.370     230.196
  H      751.604       6.656     229.824
  H      753.190       7.209     229.342
  H      753.018       6.132     230.707

 6  7  8  9  10  11  12  13  14  15  26  29  33  34 0
 6-311+G(2d,p)
 ****
 36  38  39  40  41 0
 6-311+G(2d,p)
 ****
 1  2  3  4  5  16  17  18  19  20  21  22  23  24  25 0
 3-21G
 ****
 27  28  30  31  32  35  37  42  43  44  45  46  47 0
 3-21G
 ****
 48  49 0
 3-21G
 ****


