%nproc=1
%NoSave
%Mem=1900MB
#P OB98/GEN NMR

erre ene a

0 1
  C      203.902    -270.245     609.755
  O      204.826    -271.273     610.131
  P      204.700    -272.680     609.372
  C      207.055    -272.559     608.280
  O      205.650    -272.638     608.085
  C      207.747    -272.217     606.961
  O      207.591    -270.831     606.605
  C      209.256    -272.441     607.001
  O      209.565    -273.829     606.927
  C      209.706    -271.634     605.791
  O      209.478    -272.380     604.576
  C      208.752    -270.432     605.843
  N      211.026    -265.941     604.929
  C      210.543    -266.890     604.087
  N      209.964    -268.064     604.415
  C      209.879    -268.196     605.753
  C      210.328    -267.320     606.717
  C      210.924    -266.132     606.270
  N      211.435    -265.168     607.102
  N      210.069    -267.810     607.989
  C      209.498    -268.973     607.787
  N      209.357    -269.251     606.462
  O      203.226    -272.634     608.763
  O      204.895    -273.870     610.265
  H      209.833    -271.829     603.840
  H      202.642    -273.248     609.243
  H      210.647    -266.683     603.035
  H      209.196    -269.664     608.571
  H      208.403    -270.130     604.845
  H      210.760    -271.379     605.823
  H      209.687    -272.018     607.913
  H      207.307    -272.838     606.171
  H      207.434    -273.514     608.663
  H      211.936    -264.390     606.687
  H      211.456    -265.347     608.096
  H      207.268    -271.797     609.045
  P      209.885    -274.604     608.301
  C      207.888    -276.194     607.951
  O      208.444    -275.170     608.763
  O      210.113    -273.384     609.315
  O      210.983    -275.609     608.219
  H      209.437    -272.695     609.211
  H      206.945    -276.509     608.384
  H      208.552    -277.054     607.917
  H      207.710    -275.814     606.933
  H      204.093    -269.365     610.333
  H      202.902    -270.580     609.936
  H      204.020    -270.022     608.715

 3  4  5  6  7  8  9  10  11  12  22  25  29  30  31  32 0
 6-311+G(2d,p)
 ****
 33  36  37 0
 6-311+G(2d,p)
 ****
 1  2  13  14  15  16  17  18  19  20  21  23  24  26 0
 3-21G
 ****
 27  28  34  35  38  39  40  41  42  43  44  45  46  47  48 0
 3-21G
 ****


