%nproc=1
%NoSave
%Mem=1900MB
#P OB98/GEN NMR

erre ene a

0 1
  C     1115.095    -435.907    -806.050
  O     1115.646    -437.165    -805.739
  H     1115.902    -435.155    -806.060
  H     1114.366    -435.613    -805.285
  H     1114.618    -435.916    -807.033
  P     1114.675    -438.434    -805.881
  C     1113.611    -438.020    -803.551
  O     1114.334    -438.903    -804.386
  C     1112.441    -438.739    -802.903
  O     1111.388    -439.006    -803.871
  C     1112.791    -440.095    -802.278
  O     1113.329    -439.949    -800.976
  C     1111.421    -440.749    -802.217
  O     1110.661    -440.209    -801.126
  C     1110.795    -440.299    -803.550
  N     1108.683    -443.740    -806.639
  C     1108.132    -443.003    -805.611
  N     1106.818    -443.235    -805.356
  N     1108.780    -442.134    -804.873
  C     1110.076    -442.027    -805.253
  C     1110.760    -442.695    -806.237
  C     1110.007    -443.654    -807.031
  O     1110.455    -444.309    -807.954
  N     1112.075    -442.302    -806.316
  C     1112.201    -441.442    -805.337
  N     1111.031    -441.228    -804.641
  O     1115.635    -439.597    -806.428
  O     1113.495    -438.252    -806.774
  H     1111.141    -440.427    -800.290
  H     1115.147    -440.158    -807.033
  H     1108.133    -444.409    -807.153
  H     1113.113    -440.902    -805.105
  H     1109.717    -440.148    -803.482
  H     1111.467    -441.839    -802.073
  H     1106.268    -443.919    -805.823
  H     1113.449    -440.686    -802.932
  H     1106.369    -442.681    -804.630
  H     1111.998    -438.069    -802.126
  H     1113.228    -437.184    -804.150
  H     1114.285    -437.614    -802.776
  P     1114.868    -440.381    -800.773
  C     1114.469    -442.900    -801.333
  O     1114.818    -441.944    -800.351
  O     1115.279    -439.654    -799.395
  O     1115.791    -440.031    -801.888
  H     1116.255    -439.552    -799.358
  H     1114.481    -443.878    -800.899
  H     1115.173    -442.858    -802.138
  H     1113.489    -442.687    -801.705

 6  7  8  9  10  11  12  13  14  15  26  29  33  34 0
 6-311+G(2d,p)
 ****
 36  38  39  40  41 0
 6-311+G(2d,p)
 ****
 1  2  3  4  5  16  17  18  19  20  21  22  23  24  25 0
 3-21G
 ****
 27  28  30  31  32  35  37  42  43  44  45  46  47 0
 3-21G
 ****
 48  49 0
 3-21G
 ****


