%nproc=1
%NoSave
%Mem=1900MB
#P OB98/GEN NMR

erre ene a

0 1
  C       21.678      -2.397    -290.045
  O       20.912      -2.067    -291.187
  H       22.260      -3.296    -290.262
  H       21.018      -2.598    -289.197
  H       22.364      -1.583    -289.800
  P       19.993      -0.757    -291.076
  C       19.907       1.142    -292.859
  O       19.770      -0.242    -292.579
  C       19.425       1.450    -294.281
  O       20.475       1.075    -295.223
  C       18.165       0.673    -294.694
  O       17.449       1.466    -295.655
  C       18.763      -0.546    -295.379
  O       17.785      -1.239    -296.122
  C       19.895       0.132    -296.148
  N       22.866      -1.107    -300.122
  C       22.008      -0.082    -299.927
  N       21.262       0.189    -298.837
  C       21.480      -0.720    -297.871
  C       22.330      -1.813    -297.922
  C       23.045      -1.997    -299.117
  N       23.914      -3.045    -299.323
  N       22.288      -2.522    -296.734
  C       21.425      -1.866    -295.983
  N       20.908      -0.778    -296.629
  O       20.980       0.331    -290.440
  O       18.745      -0.915    -290.275
  H       17.359      -0.644    -296.775
  H       20.860       0.364    -289.473
  H       21.905       0.613    -300.756
  H       21.133      -2.140    -294.974
  H       19.519       0.697    -297.009
  H       19.160      -1.252    -294.642
  H       17.505       0.437    -293.852
  H       19.279       2.533    -294.385
  H       20.964       1.415    -292.759
  H       19.317       1.721    -292.141
  H       24.375      -3.114    -300.215
  H       24.046      -3.726    -298.589
  P       16.356       2.526    -295.141
  C       15.803       5.021    -295.701
  O       16.356       3.786    -296.133
  O       17.071       3.132    -293.837
  O       15.018       1.962    -294.796
  H       16.391       3.434    -293.204
  H       15.888       5.744    -296.486
  H       16.333       5.367    -294.838
  H       14.771       4.883    -295.454

 6  7  8  9  10  11  12  13  14  15  25  28  32  33  34  35 0
 6-311+G(2d,p)
 ****
 36  37  40 0
 6-311+G(2d,p)
 ****
 1  2  3  4  5  16  17  18  19  20  21  22  23  24 0
 3-21G
 ****
 26  27  29  30  31  38  39 41  42  43  44  45  46  47  48 0
 3-21G
 ****


