%nproc=1
%NoSave
%Mem=1900MB
#P OB98/GEN NMR

erre ene a

0 1
  C     -124.408     271.899    -478.001
  O     -125.506     271.317    -477.328
  H     -123.487     271.371    -477.745
  H     -124.571     271.818    -479.079
  H     -124.317     272.955    -477.735
  P     -125.445     271.296    -475.726
  C     -127.159     273.243    -475.693
  O     -125.913     272.750    -475.219
  C     -127.894     273.969    -474.569
  O     -128.114     273.029    -473.485
  C     -127.148     275.190    -473.998
  O     -127.956     276.363    -474.117
  C     -126.977     274.871    -472.521
  O     -127.185     276.000    -471.674
  C     -128.013     273.782    -472.269
  N     -128.156     273.275    -467.199
  C     -128.926     273.990    -468.048
  N     -128.906     273.999    -469.396
  C     -127.982     273.138    -469.864
  C     -127.142     272.326    -469.124
  C     -127.238     272.429    -467.727
  N     -126.415     271.741    -466.862
  N     -126.322     271.584    -469.956
  C     -126.637     271.975    -471.175
  N     -127.623     272.928    -471.169
  O     -123.871     271.282    -475.419
  O     -126.144     270.149    -475.080
  H     -127.098     275.683    -470.756
  H     -123.674     270.594    -474.758
  H     -129.654     274.647    -467.582
  H     -126.157     271.641    -472.087
  H     -129.005     274.199    -472.047
  H     -125.959     274.498    -472.352
  H     -126.175     275.353    -474.478
  H     -128.880     274.269    -474.939
  H     -127.777     272.406    -476.039
  H     -126.475     271.962    -465.882
  H     -125.658     271.198    -467.247
  H     -126.978     273.915    -476.537
  P     -127.185     277.738    -474.455
  C     -128.400     277.774    -476.757
  O     -127.170     277.898    -476.052
  O     -125.663     277.388    -474.105
  O     -127.684     278.914    -473.684
  H     -125.179     278.203    -473.862
  H     -128.225     277.905    -477.805
  H     -129.085     278.521    -476.413
  H     -128.814     276.803    -476.583

 6  7  8  9  10  11  12  13  14  15  25  28  32  33  34  35 0
 6-311+G(2d,p)
 ****
 36  39  40 0
 6-311+G(2d,p)
 ****
 1  2  3  4  5  16  17  18  19  20  21  22  23  24 0
 3-21G
 ****
 26  27  29  30  31  37  38  41  42  43  44  45  46  47  48 0
 3-21G
 ****


