%nproc=1
%NoSave
%Mem=1900MB
#P OB98/GEN NMR

erre ene a

0 1
  C      271.809    -364.668     -32.223
  O      271.571    -364.931     -30.843
  P      270.120    -365.482     -30.434
  C      269.745    -364.294     -28.143
  O      270.015    -365.511     -28.833
  C      269.385    -364.589     -26.682
  O      268.276    -365.502     -26.590
  C      270.516    -365.247     -25.905
  O      271.495    -364.296     -25.534
  C      269.768    -365.862     -24.725
  O      269.686    -364.960     -23.616
  C      268.366    -366.151     -25.310
  N      268.085    -367.573     -25.417
  C      267.572    -368.181     -24.260
  O      267.415    -367.530     -23.233
  N      267.283    -369.528     -24.302
  C      267.506    -370.201     -25.385
  N      267.202    -371.530     -25.367
  C      268.069    -369.601     -26.619
  C      268.335    -368.303     -26.557
  O      270.194    -367.034     -30.827
  O      268.989    -364.790     -31.130
  H      269.130    -365.414     -22.941
  H      269.316    -367.354     -31.118
  H      268.242    -370.205     -27.495
  H      268.745    -367.775     -27.413
  H      267.592    -365.699     -24.673
  H      270.278    -366.759     -24.359
  H      270.970    -366.047     -26.512
  H      269.102    -363.641     -26.199
  H      266.822    -371.905     -24.510
  H      268.930    -363.758     -28.627
  H      267.344    -372.149     -26.156
  H      270.630    -363.653     -28.204
  P      272.966    -364.465     -26.130
  C      273.497    -362.987     -24.093
  O      273.831    -363.300     -25.440
  O      272.797    -363.904     -27.623
  O      273.560    -365.836     -26.110
  H      273.617    -364.045     -28.133
  H      274.287    -362.334     -23.694
  H      273.446    -363.892     -23.491
  H      272.548    -362.441     -24.064
  H      272.809    -364.309     -32.350
  H      271.117    -363.929     -32.570
  H      271.680    -365.569     -32.785

 3  4  5  6  7  8  9  10  11  12  13  21  23  27  28  29  30  32 0
 6-311+G(2d,p)
 ****
 34  35 0
 6-311+G(2d,p)
 ****
 1  2  14  15  16  17  18  19  20  22  24  25  26 0
 3-21G
 ****
 31  33  36  37  38  39  40  41  42  43  44  45  46 0
 3-21G
 ****


