%nproc=1
%NoSave
%Mem=1900MB
#P OB98/GEN NMR

erre ene a

0 1
  C     -196.339    -303.668    -303.807
  O     -195.574    -303.375    -302.625
  P     -194.553    -302.142    -302.515
  C     -192.006    -301.720    -302.541
  O     -193.045    -302.694    -302.575
  C     -190.650    -302.338    -302.197
  O     -190.558    -302.580    -300.752
  C     -190.354    -303.683    -302.897
  O     -188.969    -303.674    -303.237
  C     -190.665    -304.689    -301.794
  O     -190.098    -305.968    -302.015
  C     -190.085    -303.937    -300.590
  N     -190.469    -304.462    -299.284
  C     -189.690    -305.502    -298.751
  O     -188.766    -305.997    -299.381
  N     -190.006    -305.982    -297.496
  C     -191.010    -305.474    -296.847
  N     -191.259    -305.995    -295.604
  C     -191.860    -304.399    -297.366
  C     -191.534    -303.944    -298.578
  O     -194.815    -301.249    -301.349
  O     -194.717    -301.335    -303.895
  H     -194.619    -300.372    -303.710
  H     -189.161    -305.931    -301.732
  H     -192.675    -304.001    -296.780
  H     -192.095    -303.126    -299.026
  H     -188.994    -303.911    -300.667
  H     -191.752    -304.810    -301.722
  H     -190.943    -303.823    -303.812
  H     -189.872    -301.609    -302.434
  H     -190.642    -306.727    -295.270
  H     -192.259    -300.968    -301.776
  H     -192.001    -305.668    -295.004
  H     -191.960    -301.208    -303.512
  P     -188.530    -303.679    -304.778
  C     -188.182    -305.515    -306.600
  O     -188.732    -305.165    -305.348
  O     -186.927    -303.589    -304.666
  O     -189.045    -302.558    -305.620
  H     -186.571    -303.186    -305.472
  H     -187.705    -306.496    -306.518
  H     -187.439    -304.788    -306.942
  H     -188.994    -305.573    -307.343
  H     -196.943    -304.534    -303.635
  H     -195.675    -303.853    -304.625
  H     -196.968    -302.835    -304.040

 3  4  5  6  7  8  9  10  11  12  13  24  27  28  29  30  32 0
 6-311+G(2d,p)
 ****
 34  35 0
 6-311+G(2d,p)
 ****
 1  2  14  15  16  17  18  19  20  21  22  23  25  26 0
 3-21G
 ****
 31  33  36  37  38  39  40  41  42  43  44  45  46 0
 3-21G
 ****


