%nproc=1
%NoSave
%Mem=1900MB
#P OB98/GEN NMR

erre ene a

0 1
  C      684.392     710.769    -764.598
  O      684.088     710.863    -765.978
  P      685.179     711.376    -767.037
  C      685.989     709.276    -768.291
  O      686.229     710.169    -767.204
  C      687.125     708.266    -768.438
  O      688.373     708.969    -768.677
  C      687.334     707.351    -767.218
  O      687.768     706.091    -767.734
  C      688.471     708.051    -766.484
  O      689.138     707.186    -765.567
  C      689.317     708.544    -767.664
  N      690.222     709.611    -767.272
  C      691.583     709.299    -767.225
  O      691.956     708.145    -767.419
  N      692.478     710.282    -766.894
  C      692.049     711.459    -766.541
  N      692.986     712.394    -766.229
  C      690.615     711.799    -766.457
  C      689.761     710.840    -766.845
  O      685.792     712.699    -766.728
  O      684.388     711.344    -768.430
  H      689.354     706.353    -766.025
  H      683.784     712.125    -768.500
  H      690.292     712.764    -766.110
  H      688.697     710.995    -766.829
  H      689.899     707.728    -768.093
  H      688.078     708.901    -765.912
  H      686.443     707.237    -766.594
  H      686.921     707.650    -769.326
  H      693.951     712.127    -766.311
  H      685.918     709.869    -769.206
  H      692.757     713.352    -766.020
  H      685.029     708.769    -768.148
  P      687.712     704.762    -766.822
  C      685.349     704.247    -767.661
  O      686.169     704.473    -766.526
  O      688.600     704.778    -765.626
  O      688.113     703.583    -767.837
  H      688.354     702.793    -767.329
  H      684.403     703.792    -767.335
  H      685.837     703.593    -768.380
  H      685.123     705.211    -768.133
  H      683.535     710.409    -764.068
  H      684.662     711.735    -764.226
  H      685.209     710.092    -764.458

 3  4  5  6  7  8  9  10  11  12  13  23  27  28  29  30  32 0
 6-311+G(2d,p)
 ****
 34  35 0
 6-311+G(2d,p)
 ****
 1  2  14  15  16  17  18  19  20  21  22  24  25  26 0
 3-21G
 ****
 31  33  36  37  38  39  40  41  42  43  44  45  46 0
 3-21G
 ****


