%nproc=1
%NoSave
%Mem=1900MB
#P OB98/GEN NMR

erre ene a

0 1
  C      226.457      49.568     -28.604
  O      227.471      48.743     -28.064
  P      227.575      47.211     -28.513
  C      225.947      45.221     -28.518
  O      226.336      46.427     -27.865
  C      224.829      44.533     -27.739
  O      223.589      45.254     -27.897
  C      224.537      43.110     -28.201
  O      225.519      42.213     -27.722
  C      223.141      42.896     -27.625
  O      223.217      42.532     -26.237
  C      222.517      44.291     -27.781
  N      217.659      44.735     -29.265
  C      218.214      44.501     -28.057
  N      219.520      44.357     -27.749
  C      220.277      44.454     -28.853
  C      219.852      44.655     -30.156
  C      218.471      44.824     -30.346
  N      217.899      45.123     -31.564
  N      220.932      44.662     -31.019
  C      221.983      44.460     -30.251
  N      221.642      44.394     -28.930
  O      228.907      46.571     -28.301
  O      227.205      47.245     -30.070
  H      223.705      41.689     -26.184
  H      227.960      46.909     -30.589
  H      217.517      44.430     -27.227
  H      223.004      44.375     -30.600
  H      221.932      44.575     -26.898
  H      222.591      42.103     -28.140
  H      224.482      43.078     -29.295
  H      225.096      44.548     -26.674
  H      226.820      44.565     -28.573
  H      216.921      45.367     -31.560
  H      218.498      45.489     -32.300
  H      225.615      45.452     -29.535
  P      225.661      40.762     -28.384
  C      223.889      39.155     -29.308
  O      224.228      40.055     -28.270
  O      226.815      39.944     -27.906
  O      225.780      41.074     -29.951
  H      226.343      40.399     -30.374
  H      223.578      39.717     -30.194
  H      223.060      38.530     -28.973
  H      224.739      38.514     -29.561
  H      226.541      50.552     -28.192
  H      225.498      49.160     -28.361
  H      226.565      49.616     -29.667

 3  4  5  6  7  8  9  10  11  12  22  25  29  30  31  32 0
 6-311+G(2d,p)
 ****
 33  36  37 0
 6-311+G(2d,p)
 ****
 1  2  13  14  15  16  17  18  19  20  21  23  24  26 0
 3-21G
 ****
 27  28  34  35  38  39  40  41  42  43  44  45  46  47  48 0
 3-21G
 ****


