%nproc=1
%NoSave
%Mem=1900MB
#P OB98/GEN NMR

erre ene a

0 1
  C      -71.319     -63.425      15.375
  O      -70.056     -63.999      15.665
  P      -68.925     -63.977      14.527
  C      -69.870     -66.275      13.670
  O      -69.427     -64.965      13.366
  C      -69.850     -67.148      12.410
  O      -70.878     -66.677      11.494
  C      -68.517     -67.136      11.650
  O      -68.330     -68.449      11.101
  C      -68.770     -66.127      10.543
  O      -67.892     -66.292       9.440
  C      -70.242     -66.411      10.227
  N      -70.913     -65.308       9.538
  C      -70.695     -65.166       8.171
  O      -69.957     -65.900       7.515
  N      -71.344     -64.116       7.571
  C      -72.113     -63.180       8.198
  O      -72.654     -62.248       7.614
  C      -72.267     -63.352       9.650
  C      -71.680     -64.395      10.240
  O      -67.748     -64.787      15.246
  O      -68.560     -62.606      14.068
  H      -68.072     -65.507      15.814
  H      -68.048     -65.560       8.816
  H      -71.230     -64.017       6.572
  H      -72.859     -62.619      10.186
  H      -71.778     -64.544      11.310
  H      -70.326     -67.325       9.626
  H      -68.633     -65.112      10.937
  H      -67.670     -66.877      12.292
  H      -70.117     -68.173      12.699
  H      -70.892     -66.233      14.057
  H      -69.231     -66.702      14.451
  P      -66.871     -69.120      11.222
  C      -66.112     -68.151       8.909
  O      -65.877     -68.273      10.294
  O      -67.104     -70.458      10.364
  O      -66.418     -69.398      12.617
  H      -67.530     -70.288       9.509
  H      -65.549     -67.293       8.529
  H      -67.172     -67.994       8.696
  H      -65.765     -69.054       8.397
  H      -71.958     -63.518      16.228
  H      -71.759     -63.933      14.543
  H      -71.194     -62.390      15.135

 3  4  5  6  7  8  9  10  11  12  13  24  28  29  30  31  32 0
 6-311+G(2d,p)
 ****
 33  34 0
 6-311+G(2d,p)
 ****
 1  2  14  15  16  17  18  19  20  21  22  23  25  26  27 0
 3-21G
 ****
 35  36  37  38  39  40  41  42  43  44  45 0
 3-21G
 ****


