%nproc=1
%NoSave
%Mem=1900MB
#P OB98/GEN NMR

erre ene a

0 1
  C       81.335    -110.126    -100.313
  O       82.629    -110.645    -100.080
  P       83.495    -110.202     -98.806
  C       84.415    -108.101     -99.968
  O       83.625    -108.604     -98.902
  C       85.411    -107.050     -99.476
  O       84.724    -105.783     -99.280
  C       86.115    -107.404     -98.159
  O       87.434    -106.855     -98.247
  C       85.291    -106.647     -97.135
  O       85.981    -106.457     -95.906
  C       84.962    -105.369     -97.917
  N       83.822    -104.658     -97.349
  C       84.096    -103.742     -96.331
  O       85.245    -103.619     -95.898
  N       83.059    -103.025     -95.787
  C       81.844    -103.281     -96.156
  N       80.859    -102.537     -95.587
  C       81.500    -104.328     -97.135
  C       82.527    -104.962     -97.698
  O       84.786    -110.927     -98.632
  O       82.486    -110.392     -97.579
  H       85.376    -106.005     -95.279
  H       82.410    -111.350     -97.340
  H       80.469    -104.545     -97.369
  H       82.374    -105.745     -98.427
  H       85.825    -104.689     -97.926
  H       84.371    -107.206     -96.918
  H       86.155    -108.477     -97.958
  H       86.156    -106.894    -100.267
  H       81.140    -101.819     -94.931
  H       83.745    -107.634    -100.696
  H       79.889    -102.599     -95.862
  H       84.933    -108.923    -100.472
  P       88.724    -107.716     -97.847
  C       89.091    -106.603     -95.572
  O       88.752    -107.800     -96.248
  O       90.003    -107.269     -98.476
  O       88.352    -109.213     -98.284
  H       89.164    -109.753     -98.313
  H       88.809    -106.698     -94.519
  H       88.569    -105.746     -96.004
  H       90.170    -106.441     -95.636
  H       80.937    -110.550    -101.211
  H       81.390    -109.062    -100.415
  H       80.698    -110.372     -99.489

 3  4  5  6  7  8  9  10  11  12  13  23  27  28  29  30  32 0
 6-311+G(2d,p)
 ****
 34  35 0
 6-311+G(2d,p)
 ****
 1  2  14  15  16  17  18  19  20  21  22  24  25  26 0
 3-21G
 ****
 31  33  36  37  38  39  40  41  42  43  44  45  46 0
 3-21G
 ****


