%nproc=1
%NoSave
%Mem=1900MB
#P OB98/GEN NMR

erre ene a

0 1
  C     -197.608      -9.161     -10.008
  O     -198.923      -8.939     -10.491
  P     -199.975     -10.146     -10.582
  C     -200.006      -9.921      -8.022
  O     -200.025     -10.818      -9.125
  C     -201.174     -10.203      -7.078
  O     -201.018      -9.395      -5.888
  C     -202.534      -9.873      -7.681
  O     -203.490     -10.830      -7.218
  C     -202.889      -8.520      -7.089
  O     -204.314      -8.326      -7.051
  C     -202.209      -8.602      -5.720
  N     -203.420      -4.822      -2.466
  C     -203.999      -6.018      -2.708
  N     -203.640      -6.962      -3.605
  C     -202.524      -6.594      -4.254
  C     -201.820      -5.407      -4.112
  C     -202.312      -4.491      -3.168
  N     -201.712      -3.276      -2.915
  N     -200.742      -5.373      -4.976
  C     -200.785      -6.524      -5.609
  N     -201.837      -7.301      -5.201
  O     -199.741     -11.103     -11.698
  O     -201.398      -9.430     -10.700
  H     -204.702      -9.132      -6.652
  H     -201.976      -9.923     -11.313
  H     -204.872      -6.246      -2.103
  H     -200.092      -6.838      -6.374
  H     -202.848      -9.101      -4.981
  H     -202.458      -7.724      -7.707
  H     -202.522      -9.856      -8.776
  H     -201.129     -11.254      -6.770
  H     -200.094      -8.900      -8.406
  H     -202.063      -2.740      -2.137
  H     -200.796      -3.106      -3.308
  H     -199.051     -10.013      -7.494
  P     -204.782     -11.045      -8.156
  C     -203.445     -12.673      -9.686
  O     -204.185     -11.477      -9.577
  O     -205.695      -9.864      -8.131
  O     -205.399     -12.384      -7.532
  H     -204.712     -12.921      -7.079
  H     -203.092     -12.774     -10.715
  H     -204.079     -13.532      -9.451
  H     -202.582     -12.652      -9.015
  H     -197.062      -8.241     -10.024
  H     -197.116      -9.878     -10.631
  H     -197.654      -9.531      -9.005

 3  4  5  6  7  8  9  10  11  12  22  25  29  30  31  32 0
 6-311+G(2d,p)
 ****
 33  36  37 0
 6-311+G(2d,p)
 ****
 1  2  13  14  15  16  17  18  19  20  21  23  24  26 0
 3-21G
 ****
 27  28  34  35  38  39  40  41  42  43  44  45  46  47  48 0
 3-21G
 ****


