%nproc=1
%NoSave
%Mem=1900MB
#P OB98/GEN NMR

erre ene a

0 1
  C     -268.619      66.625      80.918
  O     -269.986      66.983      80.914
  H     -268.346      66.273      79.920
  H     -268.441      65.820      81.637
  H     -268.004      67.491      81.168
  P     -270.610      67.475      82.307
  C     -269.904      69.905      81.721
  O     -269.879      68.854      82.676
  C     -269.166      71.117      82.275
  O     -269.060      72.137      81.255
  C     -269.867      71.788      83.448
  O     -269.667      71.091      84.664
  C     -269.202      73.155      83.437
  O     -267.947      73.136      84.137
  C     -268.991      73.410      81.929
  N     -269.954      74.367      81.393
  C     -269.936      75.631      81.971
  O     -269.167      75.945      82.880
  N     -270.864      76.519      81.499
  C     -271.809      76.259      80.552
  O     -272.659      77.076      80.224
  C     -271.772      74.909      79.964
  C     -270.866      74.035      80.411
  O     -270.009      66.430      83.362
  O     -272.100      67.524      82.349
  H     -270.688      65.774      83.603
  H     -267.487      73.964      83.893
  H     -270.873      77.437      81.915
  H     -272.506      74.672      79.204
  H     -270.833      73.027      80.006
  H     -267.985      73.809      81.746
  H     -269.822      73.907      83.923
  H     -270.934      71.913      83.232
  H     -268.151      70.808      82.557
  H     -270.942      70.182      81.511
  H     -269.439      69.554      80.794
  P     -270.805      71.174      85.791
  C     -271.026      68.564      85.590
  O     -271.666      69.824      85.669
  O     -271.762      72.300      85.182
  O     -270.281      71.462      87.156
  H     -271.820      72.266      84.213
  H     -271.764      67.793      85.514
  H     -270.436      68.408      86.469
  H     -270.394      68.538      84.727

 6  7  8  9  10  11  12  13  14  15  16  27  31  32  33  34  35 0
 6-311+G(2d,p)
 ****
 36  37 0
 6-311+G(2d,p)
 ****
 1  2  3  4  5  17  18  19  20  21  22  23  24  25 0
 3-21G
 ****
 26  28  29  30  38  39  40  41  42  43  44  45 0
 3-21G
 ****


