%nproc=1
%NoSave
%Mem=1900MB
#P OB98/GEN NMR

erre ene a

0 1
  C       18.652    -183.510     186.152
  O       19.454    -182.364     186.344
  H       17.611    -183.194     186.028
  H       18.713    -184.158     187.030
  H       18.958    -184.063     185.259
  P       21.049    -182.510     186.274
  C       21.249    -183.785     184.036
  O       21.424    -182.546     184.711
  C       21.911    -183.728     182.657
  O       21.557    -182.455     182.032
  C       23.452    -183.812     182.710
  O       23.911    -184.512     181.546
  C       23.836    -182.348     182.621
  O       25.169    -182.179     182.206
  C       22.792    -181.828     181.634
  N       22.711    -180.368     181.661
  C       22.991    -179.702     180.474
  O       23.308    -180.273     179.428
  N       22.972    -178.335     180.533
  C       22.814    -177.587     181.664
  O       22.883    -176.368     181.677
  C       22.575    -178.348     182.903
  C       22.527    -179.683     182.847
  O       21.640    -183.617     187.082
  O       21.598    -181.072     186.718
  H       25.261    -182.445     181.269
  H       22.523    -181.141     187.024
  H       23.164    -177.837     179.676
  H       22.458    -177.788     183.824
  H       22.368    -180.275     183.742
  H       23.020    -182.158     180.613
  H       23.727    -181.872     183.602
  H       23.823    -184.302     183.611
  H       21.491    -184.520     182.023
  H       20.172    -183.967     183.926
  H       21.690    -184.591     184.631
  P       23.889    -186.113     181.455
  C       21.414    -186.730     181.766
  O       22.492    -186.627     180.841
  O       24.285    -186.805     182.723
  O       24.948    -186.458     180.299
  H       25.525    -187.188     180.597
  H       20.539    -187.078     181.257
  H       21.219    -185.769     182.195
  H       21.674    -187.420     182.541

 6  7  8  9  10  11  12  13  14  15  16  26  31  32  33  34  35 0
 6-311+G(2d,p)
 ****
 36  37 0
 6-311+G(2d,p)
 ****
 1  2  3  4  5  17  18  19  20  21  22  23  24  25 0
 3-21G
 ****
 27  28  29  30  38  39  40  41  42  43  44  45 0
 3-21G
 ****


