%nproc=1
%NoSave
%Mem=1900MB
#P OB98/GEN NMR

erre ene a

0 1
  C      270.026      53.604     -32.442
  O      269.878      52.255     -32.833
  H      270.428      54.170     -33.287
  H      270.722      53.686     -31.603
  H      269.058      54.031     -32.166
  P      269.365      51.191     -31.751
  C      266.967      52.142     -31.836
  O      267.793      50.994     -32.004
  C      265.775      52.081     -32.797
  O      264.933      53.231     -32.529
  C      266.204      52.131     -34.270
  O      265.665      51.063     -35.047
  C      265.854      53.554     -34.690
  O      265.598      53.717     -36.070
  C      264.675      53.904     -33.775
  N      264.498      55.338     -33.560
  C      263.674      56.022     -34.449
  O      263.063      55.510     -35.386
  N      263.550      57.370     -34.223
  C      264.158      58.078     -33.231
  O      264.003      59.284     -33.075
  C      265.033      57.305     -32.338
  C      265.163      55.992     -32.540
  O      269.738      51.479     -30.334
  O      269.985      49.802     -32.249
  H      265.510      54.675     -36.245
  H      270.761      49.574     -31.703
  H      262.946      57.873     -34.856
  H      265.539      57.839     -31.545
  H      265.801      55.390     -31.898
  H      263.743      53.513     -34.186
  H      266.704      54.203     -34.443
  H      267.288      51.990     -34.367
  H      265.187      51.182     -32.576
  H      267.576      53.028     -32.042
  H      266.607      52.189     -30.802
  P      266.380      49.651     -35.268
  C      265.518      48.033     -33.394
  O      265.402      48.507     -34.726
  O      267.808      49.577     -34.845
  O      266.336      49.461     -36.870
  H      267.143      48.962     -37.114
  H      264.783      47.275     -33.220
  H      265.363      48.843     -32.712
  H      266.495      47.623     -33.245

 6  7  8  9  10  11  12  13  14  15  16  26  31  32  33  34  35 0
 6-311+G(2d,p)
 ****
 36  37 0
 6-311+G(2d,p)
 ****
 1  2  3  4  5  17  18  19  20  21  22  23  24  25 0
 3-21G
 ****
 27  28  29  30  38  39  40  41  42  43  44  45 0
 3-21G
 ****


