%nproc=1
%NoSave
%Mem=1900MB
#P OB98/GEN NMR

erre ene a

0 1
  C       77.804      37.098    -138.189
  O       76.425      36.936    -138.459
  H       77.949      37.139    -137.107
  H       78.169      38.028    -138.629
  H       78.368      36.250    -138.588
  P       75.986      36.910    -140.001
  C       77.413      34.795    -140.490
  O       77.157      36.158    -140.800
  C       77.305      33.952    -141.758
  O       78.068      34.566    -142.822
  C       77.867      32.542    -141.616
  O       76.975      31.675    -140.943
  C       78.068      32.167    -143.076
  O       76.855      31.675    -143.665
  C       78.488      33.511    -143.711
  N       79.917      33.563    -143.989
  C       80.303      33.161    -145.266
  O       79.506      32.780    -146.120
  N       81.649      33.177    -145.517
  C       82.627      33.509    -144.626
  O       83.820      33.429    -144.894
  C       82.160      33.943    -143.295
  C       80.849      33.941    -143.038
  O       76.140      38.438    -140.447
  O       74.612      36.384    -140.259
  H       75.264      38.865    -140.490
  H       77.025      31.613    -144.626
  H       81.946      32.876    -146.428
  H       82.912      34.218    -142.564
  H       80.486      34.234    -142.059
  H       77.954      33.668    -144.658
  H       78.816      31.381    -143.187
  H       78.846      32.572    -141.120
  H       76.250      33.918    -142.064
  H       76.677      34.439    -139.761
  H       78.413      34.712    -140.049
  P       77.550      30.301    -140.344
  C       77.730      31.440    -137.979
  O       78.347      30.688    -139.004
  O       78.699      29.960    -141.400
  O       76.516      29.243    -140.167
  H       79.152      30.751    -141.739
  H       78.425      31.590    -137.179
  H       76.874      30.911    -137.614
  H       77.424      32.389    -138.368

 6  7  8  9  10  11  12  13  14  15  16  27  31  32  33  34  35 0
 6-311+G(2d,p)
 ****
 36  37 0
 6-311+G(2d,p)
 ****
 1  2  3  4  5  17  18  19  20  21  22  23  24  25 0
 3-21G
 ****
 26  28  29  30  38  39  40  41  42  43  44  45 0
 3-21G
 ****


