%nproc=1
%NoSave
%Mem=1900MB
#P OB98/GEN NMR

erre ene a

0 1
  C       -8.596     506.821     391.067
  O       -7.866     507.329     392.163
  H       -8.452     505.739     391.013
  H       -8.240     507.274     390.137
  H       -9.666     507.026     391.194
  P       -7.968     508.907     392.430
  C       -5.911     510.305     391.664
  O       -7.103     509.620     391.283
  C       -4.761     509.317     391.792
  O       -4.726     508.440     390.620
  C       -3.381     509.964     391.848
  O       -3.089     510.487     393.128
  C       -2.489     508.798     391.455
  O       -2.195     507.952     392.573
  C       -3.351     508.039     390.424
  N       -0.648     506.302     386.453
  C       -0.942     505.762     387.651
  N       -1.687     506.287     388.648
  C       -2.165     507.500     388.302
  C       -1.944     508.173     387.117
  C       -1.149     507.526     386.159
  N       -0.824     508.090     384.942
  N       -2.565     509.405     387.148
  C       -3.156     509.477     388.325
  N       -2.941     508.330     389.053
  O       -7.088     509.103     393.757
  O       -9.354     509.435     392.601
  H       -1.463     507.374     392.289
  H       -7.672     509.168     394.533
  H       -0.526     504.771     387.834
  H       -3.734     510.309     388.693
  H       -3.304     506.961     390.555
  H       -1.546     509.152     391.051
  H       -3.303     510.757     391.084
  H       -4.937     508.679     392.670
  H       -6.067     510.809     392.630
  H       -5.684     511.062     390.906
  H       -0.200     507.608     384.337
  H       -1.103     509.055     384.761
  P       -1.944     511.617     393.228
  C        0.264     510.957     394.468
  O       -0.540     510.862     393.296
  O       -2.127     512.215     394.705
  O       -2.035     512.681     392.186
  H       -1.933     513.172     394.706
  H        1.162     510.391     394.332
  H       -0.278     510.570     395.305
  H        0.513     511.982     394.648

 6  7  8  9  10  11  12  13  14  15  25  28  32  33  34  35 0
 6-311+G(2d,p)
 ****
 36  37  40 0
 6-311+G(2d,p)
 ****
 1  2  3  4  5  16  17  18  19  20  21  22  23  24 0
 3-21G
 ****
 26  27  29  30  31  38  39 41  42  43  44  45  46  47  48 0
 3-21G
 ****


