%nproc=1
%NoSave
%Mem=1900MB
#P OB98/GEN NMR

erre ene a

0 1
  C      235.484    -893.180    -382.377
  O      236.004    -892.660    -383.580
  H      234.406    -892.990    -382.348
  H      235.949    -892.710    -381.510
  H      235.641    -894.270    -382.338
  P      237.593    -892.710    -383.809
  C      237.642    -894.980    -385.039
  O      237.935    -894.280    -383.847
  C      238.676    -896.080    -385.272
  O      239.969    -895.520    -385.573
  C      238.918    -897.000    -384.078
  O      237.869    -897.930    -383.857
  C      240.208    -897.680    -384.521
  O      239.917    -898.670    -385.516
  C      240.973    -896.470    -385.133
  N      241.909    -895.860    -384.205
  C      243.205    -896.390    -384.153
  O      243.510    -897.330    -384.877
  N      244.102    -895.860    -383.266
  C      243.743    -894.900    -382.476
  N      244.666    -894.450    -381.578
  C      242.398    -894.290    -382.498
  C      241.539    -894.820    -383.372
  O      238.423    -891.890    -382.868
  O      237.784    -892.300    -385.346
  H      240.764    -898.930    -385.913
  H      238.753    -892.310    -385.531
  H      242.147    -893.500    -381.819
  H      240.523    -894.430    -383.440
  H      241.535    -896.790    -386.022
  H      240.729    -898.180    -383.705
  H      239.120    -896.410    -383.174
  H      238.367    -896.650    -386.163
  H      245.567    -894.910    -381.566
  H      237.637    -894.270    -385.867
  H      244.383    -893.910    -380.768
  H      236.651    -895.450    -384.969
  P      237.814    -898.670    -382.434
  C      235.865    -897.210    -381.513
  O      237.215    -897.620    -381.378
  O      239.357    -898.780    -382.027
  O      237.122    -900.000    -382.428
  H      239.731    -899.640    -382.301
  H      235.624    -896.514    -380.737
  H      235.224    -898.063    -381.438
  H      235.728    -896.743    -382.466

 6  7  8  9  10  11  12  13  14  15  16  26  30  31  32  33  35 0
 6-311+G(2d,p)
 ****
 37  38 0
 6-311+G(2d,p)
 ****
 1  2  3  4  5  17  18  19  20  21  22  23  24  25 0
 3-21G
 ****
 27  28  29  34  36  39  40  41  42  43  44  45  46 0
 3-21G
 ****


