%nproc=1
%NoSave
%Mem=1900MB
#P OB98/GEN NMR

erre ene a

0 1
  C     -898.480    -359.485     372.030
  O     -898.320    -359.442     373.428
  H     -898.570    -358.464     371.652
  H     -899.390    -360.039     371.768
  H     -897.610    -359.955     371.559
  P     -898.140    -360.854     374.182
  C     -895.550    -360.654     373.996
  O     -896.720    -361.429     373.721
  C     -894.650    -361.407     374.965
  O     -894.360    -362.728     374.445
  C     -893.290    -360.750     375.178
  O     -893.340    -359.640     376.068
  C     -892.480    -361.910     375.717
  O     -892.680    -362.091     377.124
  C     -893.060    -363.112     374.947
  N     -890.590    -367.052     372.825
  C     -891.440    -366.967     373.885
  N     -892.070    -365.877     374.373
  C     -891.770    -364.799     373.639
  C     -890.940    -364.723     372.527
  C     -890.330    -365.922     372.123
  N     -889.450    -365.994     371.066
  N     -890.850    -363.421     372.087
  C     -891.630    -362.732     372.880
  N     -892.200    -363.511     373.846
  O     -899.200    -361.792     373.424
  O     -898.370    -360.822     375.655
  H     -893.640    -362.258     377.234
  H     -900.000    -361.876     373.965
  H     -891.620    -367.915     374.394
  H     -891.790    -361.660     372.822
  H     -893.200    -363.993     375.583
  H     -891.410    -361.765     375.543
  H     -892.860    -360.439     374.207
  H     -895.180    -361.518     375.918
  H     -895.850    -359.692     374.447
  H     -895.030    -360.450     373.047
  H     -889.000    -366.868     370.867
  H     -889.160    -365.137     370.616
  P     -892.330    -358.418     375.819
  C     -894.110    -356.731     374.899
  O     -892.970    -357.538     374.632
  O     -891.070    -359.106     375.130
  O     -891.970    -357.664     377.043
  H     -890.250    -358.658     375.420
  H     -894.401    -356.218     374.006
  H     -893.871    -356.017     375.659
  H     -894.916    -357.351     375.233

 6  7  8  9  10  11  12  13  14  15  25  28  32  33  34  35 0
 6-311+G(2d,p)
 ****
 36  37  40 0
 6-311+G(2d,p)
 ****
 1  2  3  4  5  16  17  18  19  20  21  22  23  24 0
 3-21G
 ****
 26  27  29  30  31  38  39 41  42  43  44  45  46  47  48 0
 3-21G
 ****


