%nproc=1
%NoSave
%Mem=1900MB
#P OB98/GEN NMR

erre ene a

0 1
  C       25.640      11.409     157.382
  O       26.033      10.878     158.656
  P       24.864      10.414     159.656
  C       25.509      11.856     161.750
  O       25.473      10.577     161.132
  C       26.044      11.733     163.176
  O       27.493      11.772     163.184
  C       25.604      12.857     164.106
  O       24.243      12.707     164.492
  C       26.610      12.707     165.238
  O       26.213      11.649     166.125
  C       27.892      12.299     164.472
  N       28.846      13.392     164.330
  C       29.875      13.425     165.270
  O       29.975      12.608     166.186
  N       30.775      14.449     165.135
  C       30.732      15.432     164.190
  O       31.577      16.318     164.106
  C       29.596      15.373     163.256
  C       28.717      14.376     163.366
  O       24.851       8.838     159.399
  O       23.569      11.114     159.403
  H       25.734       8.470     159.223
  H       27.006      11.413     166.647
  H       31.535      14.481     165.795
  H       29.516      16.155     162.509
  H       27.870      14.314     162.689
  H       28.395      11.475     164.994
  H       26.708      13.620     165.837
  H       25.743      13.827     163.610
  H       25.721      10.759     163.578
  H       24.503      12.284     161.779
  H       26.135      12.524     161.146
  P       23.284      13.982     164.279
  C       22.328      14.415     166.673
  O       22.133      13.873     165.388
  O       22.552      13.591     162.908
  O       24.017      15.283     164.233
  H       22.258      12.665     162.885
  H       21.350      14.557     167.148
  H       22.835      15.381     166.627
  H       22.916      13.722     167.278
  H       26.512      11.676     156.822
  H       25.032      12.277     157.530
  H       25.083      10.670     156.844

 3  4  5  6  7  8  9  10  11  12  13  24  28  29  30  31  32 0
 6-311+G(2d,p)
 ****
 33  34 0
 6-311+G(2d,p)
 ****
 1  2  14  15  16  17  18  19  20  21  22  23  25  26  27 0
 3-21G
 ****
 35  36  37  38  39  40  41  42  43  44  45 0
 3-21G
 ****


