%nproc=1
%NoSave
%Mem=1900MB
#P OB98/GEN NMR

erre ene a

0 1
  C       -0.245      61.184     119.512
  O       -0.813      60.899     118.246
  P        0.192      60.790     116.996
  C        2.046      62.322     115.995
  O        0.924      62.210     116.864
  C        2.047      63.687     115.312
  O        0.982      63.759     114.343
  C        1.821      64.866     116.251
  O        2.990      65.155     117.000
  C        1.421      65.946     115.251
  O        2.588      66.475     114.603
  C        0.572      65.149     114.243
  N       -3.896      66.990     112.547
  C       -2.635      67.101     112.071
  N       -1.496      66.601     112.591
  C       -1.748      65.918     113.719
  C       -2.973      65.740     114.336
  C       -4.088      66.309     113.702
  N       -5.372      66.199     114.193
  N       -2.838      65.002     115.493
  C       -1.552      64.729     115.567
  N       -0.853      65.248     114.512
  O       -0.793      60.762     115.739
  O        1.103      59.602     117.023
  H        3.114      66.939     115.285
  H       -0.434      60.200     115.025
  H       -2.529      67.664     111.147
  H       -1.082      64.159     116.358
  H        0.736      65.470     113.209
  H        0.891      66.786     115.714
  H        0.986      64.658     116.932
  H        3.002      63.800     114.782
  H        1.992      61.543     115.228
  H       -6.088      66.760     113.758
  H       -5.493      65.814     115.121
  H        2.961      62.173     116.576
  P        2.795      65.541     118.546
  C        1.401      67.338     119.742
  O        1.897      66.872     118.498
  O        4.242      66.108     118.923
  O        2.282      64.440     119.408
  H        4.562      66.754     118.268
  H        0.857      68.269     119.574
  H        2.228      67.528     120.432
  H        0.717      66.601     120.172
  H       -1.020      61.228     120.249
  H        0.263      62.125     119.471
  H        0.451      60.414     119.772

 3  4  5  6  7  8  9  10  11  12  22  25  29  30  31  32 0
 6-311+G(2d,p)
 ****
 33  36  37 0
 6-311+G(2d,p)
 ****
 1  2  13  14  15  16  17  18  19  20  21  23  24  26 0
 3-21G
 ****
 27  28  34  35  38  39  40  41  42  43  44  45  46  47  48 0
 3-21G
 ****


