%nproc=1
%NoSave
%Mem=1900MB
#P OB98/GEN NMR

erre ene a

0 1
  C      436.195    -898.560    -400.851
  O      435.516    -897.410    -400.356
  P      436.317    -896.100    -399.930
  C      437.256    -897.200    -397.790
  O      436.488    -896.130    -398.327
  C      437.251    -897.160    -396.266
  O      437.824    -895.920    -395.788
  C      435.868    -897.220    -395.653
  O      435.294    -898.510    -395.737
  C      436.145    -896.730    -394.230
  O      436.674    -897.800    -393.424
  C      437.222    -895.660    -394.496
  N      436.703    -894.300    -394.386
  C      436.786    -893.700    -393.131
  O      437.173    -894.340    -392.162
  N      436.385    -892.390    -393.005
  C      435.830    -891.790    -394.010
  N      435.495    -890.480    -393.854
  C      435.602    -892.450    -395.311
  C      436.070    -893.680    -395.440
  O      435.814    -894.820    -400.478
  O      437.822    -896.390    -400.429
  H      438.137    -895.620    -400.937
  H      436.028    -898.540    -393.485
  H      435.054    -891.930    -396.092
  H      435.948    -894.230    -396.384
  H      438.053    -895.760    -393.769
  H      435.247    -896.360    -393.730
  H      435.205    -896.500    -396.155
  H      437.882    -897.980    -395.904
  H      435.697    -890.060    -392.963
  H      438.289    -897.100    -398.149
  H      435.378    -889.850    -394.642
  H      436.849    -898.150    -398.159
  P      433.883    -898.640    -396.495
  C      432.230    -897.900    -394.614
  O      432.769    -898.970    -395.363
  O      434.012    -900.000    -397.308
  O      433.546    -897.490    -397.384
  H      433.541    -899.910    -398.173
  H      431.282    -898.240    -394.184
  H      432.026    -897.030    -395.259
  H      432.929    -897.630    -393.833
  H      435.482    -899.325    -401.078
  H      436.878    -898.918    -400.109
  H      436.735    -898.301    -401.738

 3  4  5  6  7  8  9  10  11  12  13  24  27  28  29  30  32 0
 6-311+G(2d,p)
 ****
 34  35 0
 6-311+G(2d,p)
 ****
 1  2  14  15  16  17  18  19  20  21  22  23  25  26 0
 3-21G
 ****
 31  33  36  37  38  39  40  41  42  43  44  45  46 0
 3-21G
 ****


