%nproc=1
%NoSave
%Mem=1900MB
#P OB98/GEN NMR

erre ene a

0 1
  C      264.660    -152.393     405.944
  O      264.114    -153.559     406.526
  H      264.484    -151.547     406.618
  H      264.184    -152.183     404.982
  H      265.741    -152.513     405.805
  P      264.175    -154.896     405.634
  C      261.869    -154.343     404.552
  O      263.263    -154.549     404.357
  C      261.100    -155.597     404.132
  O      259.706    -155.481     404.472
  C      261.138    -155.879     402.629
  O      262.355    -156.472     402.218
  C      259.966    -156.838     402.507
  O      260.357    -158.139     402.994
  C      258.932    -156.180     403.446
  N      258.036    -155.249     402.759
  C      256.742    -155.718     402.490
  O      256.401    -156.858     402.810
  N      255.864    -154.889     401.819
  C      256.239    -153.704     401.465
  N      255.337    -152.926     400.794
  C      257.580    -153.167     401.743
  C      258.425    -153.983     402.380
  O      263.270    -155.937     406.443
  O      265.546    -155.400     405.306
  H      259.566    -158.706     402.939
  H      263.144    -156.760     405.912
  H      257.861    -152.170     401.418
  H      259.429    -153.658     402.620
  H      258.331    -156.938     403.962
  H      259.631    -156.970     401.474
  H      260.910    -154.973     402.048
  H      261.509    -156.448     404.705
  H      254.446    -153.342     400.562
  H      261.554    -153.489     403.944
  H      255.592    -152.073     400.320
  H      261.661    -154.128     405.609
  P      262.999    -155.948     400.831
  C      262.277    -158.046     399.471
  O      262.168    -156.633     399.634
  O      264.407    -156.706     400.787
  O      263.150    -154.457     400.730
  H      265.106    -156.121     400.420
  H      261.675    -158.357     398.643
  H      261.940    -158.535     400.361
  H      263.298    -158.306     399.287

 6  7  8  9  10  11  12  13  14  15  16  26  30  31  32  33  35 0
 6-311+G(2d,p)
 ****
 37  38 0
 6-311+G(2d,p)
 ****
 1  2  3  4  5  17  18  19  20  21  22  23  24  25 0
 3-21G
 ****
 27  28  29  34  36  39  40  41  42  43  44  45  46 0
 3-21G
 ****


