%nproc=1
%NoSave
%Mem=1900MB
#P OB98/GEN NMR

erre ene a

0 1
  C     1245.210    -369.389     664.281
  O     1246.050    -370.405     663.757
  H     1245.692    -368.886     665.114
  H     1244.993    -368.659     663.489
  H     1244.265    -369.833     664.618
  P     1246.516    -371.554     664.760
  C     1248.764    -370.337     665.205
  O     1248.125    -371.538     664.798
  C     1250.277    -370.548     665.297
  O     1250.526    -371.546     666.330
  C     1250.920    -371.064     663.989
  O     1251.965    -370.153     663.588
  C     1251.587    -372.384     664.372
  O     1252.868    -372.570     663.784
  C     1251.648    -372.318     665.911
  N     1254.515    -376.411     666.878
  C     1254.853    -375.130     666.652
  N     1254.048    -374.058     666.506
  C     1252.745    -374.423     666.642
  C     1252.267    -375.696     666.922
  C     1253.194    -376.729     667.024
  N     1252.856    -378.039     667.207
  N     1250.873    -375.677     666.990
  C     1250.553    -374.414     666.735
  N     1251.643    -373.641     666.498
  O     1246.163    -372.908     663.972
  O     1245.862    -371.516     666.113
  H     1252.708    -372.928     662.884
  H     1245.690    -373.509     664.559
  H     1255.922    -374.940     666.546
  H     1249.542    -374.031     666.657
  H     1252.577    -371.791     666.243
  H     1250.913    -373.215     664.069
  H     1250.213    -371.203     663.169
  H     1250.747    -369.626     665.621
  H     1248.382    -370.041     666.184
  H     1253.597    -378.733     667.141
  H     1251.884    -378.289     667.203
  H     1248.536    -369.548     664.471
  P     1251.476    -368.795     662.891
  C     1251.291    -369.642     660.440
  O     1251.983    -368.827     661.363
  O     1252.430    -367.672     663.543
  O     1250.032    -368.489     663.083
  H     1251.991    -366.820     663.549
  H     1251.746    -369.554     659.476
  H     1250.270    -369.328     660.382
  H     1251.333    -370.661     660.763

 6  7  8  9  10  11  12  13  14  15  25  28  32  33  34  35 0
 6-311+G(2d,p)
 ****
 36  39  40 0
 6-311+G(2d,p)
 ****
 1  2  3  4  5  16  17  18  19  20  21  22  23  24 0
 3-21G
 ****
 26  27  29  30  31  37  38  41  42  43  44  45  46  47  48 0
 3-21G
 ****


