%nproc=1
%NoSave
%Mem=1900MB
#P OB98/GEN NMR

erre ene a

0 1
  C      145.270     610.784      49.809
  O      144.224     609.975      49.268
  P      142.689     610.456      49.248
  C      141.983     609.544      46.946
  O      142.240     610.703      47.733
  C      141.358     609.907      45.589
  O      140.045     610.474      45.768
  C      142.156     610.933      44.788
  O      143.259     610.322      44.150
  C      141.073     611.461      43.843
  O      140.897     610.573      42.730
  C      139.831     611.462      44.730
  N      138.528     616.316      43.771
  C      138.692     615.240      42.965
  N      139.045     613.980      43.301
  C      139.207     613.876      44.622
  C      139.090     614.884      45.573
  C      138.735     616.156      45.096
  N      138.587     617.246      45.924
  N      139.370     614.397      46.833
  C      139.637     613.115      46.646
  N      139.556     612.755      45.332
  O      142.395     611.593      50.176
  O      141.848     609.155      49.669
  H      141.727     610.576      42.213
  H      141.020     609.426      50.111
  H      138.507     615.421      41.902
  H      139.888     612.420      47.440
  H      138.940     611.156      44.191
  H      141.325     612.444      43.428
  H      142.495     611.740      45.437
  H      141.240     608.977      45.024
  H      141.291     608.904      47.498
  H      138.353     618.130      45.500
  H      138.782     617.151      46.903
  H      142.918     609.010      46.793
  P      144.748     610.592      44.675
  C      144.832     608.279      45.791
  O      144.958     609.676      45.977
  O      145.114     612.029      44.844
  O      145.670     609.869      43.587
  H      146.532     610.338      43.537
  H      143.767     608.012      45.776
  H      145.318     607.769      46.629
  H      145.303     607.962      44.853
  H      146.203     610.268      49.718
  H      145.071     610.981      50.842
  H      145.319     611.709      49.273

 3  4  5  6  7  8  9  10  11  12  22  25  29  30  31  32 0
 6-311+G(2d,p)
 ****
 33  36  37 0
 6-311+G(2d,p)
 ****
 1  2  13  14  15  16  17  18  19  20  21  23  24  26 0
 3-21G
 ****
 27  28  34  35  38  39  40  41  42  43  44  45  46  47  48 0
 3-21G
 ****


