%nproc=1
%NoSave
%Mem=1900MB
#P OB98/GEN NMR

erre ene a

0 1
  C      170.019    -109.788    -142.884
  O      168.752    -109.441    -143.417
  P      168.719    -108.514    -144.728
  C      169.151    -105.986    -145.193
  O      168.942    -107.004    -144.228
  C      168.811    -104.612    -144.607
  O      167.367    -104.497    -144.507
  C      169.383    -104.350    -143.210
  O      169.660    -102.948    -143.127
  C      168.227    -104.697    -142.294
  O      168.341    -104.094    -141.008
  C      167.050    -104.206    -143.128
  N      162.158    -103.543    -142.015
  C      163.149    -102.605    -142.243
  N      162.764    -101.310    -142.231
  N      164.406    -102.909    -142.466
  C      164.634    -104.242    -142.463
  C      163.747    -105.264    -142.212
  C      162.360    -104.919    -142.003
  O      161.436    -105.718    -141.883
  N      164.373    -106.483    -142.209
  C      165.620    -106.206    -142.538
  N      165.813    -104.866    -142.750
  O      167.179    -108.548    -145.151
  O      169.630    -108.928    -145.841
  H      169.218    -104.324    -140.647
  H      167.012    -109.244    -145.816
  H      161.209    -103.250    -141.865
  H      166.414    -106.925    -142.647
  H      166.890    -103.124    -143.035
  H      168.180    -105.784    -142.150
  H      161.811    -101.007    -142.095
  H      170.287    -104.929    -142.991
  H      163.463    -100.605    -142.430
  H      169.153    -103.845    -145.310
  H      168.493    -106.170    -146.052
  H      170.188    -106.015    -145.542
  P      171.112    -102.499    -142.617
  C      172.078    -101.282    -140.544
  O      170.932    -101.813    -141.183
  O      171.456    -101.259    -143.576
  O      172.167    -103.553    -142.716
  H      172.418    -101.221    -143.734
  H      171.757    -100.529    -139.819
  H      172.759    -100.813    -141.259
  H      172.602    -102.081    -140.013
  H      169.886    -110.403    -142.019
  H      170.547    -108.898    -142.611
  H      170.581    -110.324    -143.620

 3  4  5  6  7  8  9  10  11  12  23  26  30  31 0
 6-311+G(2d,p)
 ****
 33  35  36  37  38 0
 6-311+G(2d,p)
 ****
 1  2  13  14  15  16  17  18  19  20  21  22  24  25 0
 3-21G
 ****
 27  28  29  32  34  39  40  41  42  43  44  45  46  47  48  49 0
 3-21G
 ****


