%nproc=1
%NoSave
%Mem=1900MB
#P OB98/GEN NMR

erre ene a

0 1
  C     -104.646    -123.300     -97.573
  O     -103.311    -123.084     -97.162
  H     -104.925    -122.519     -98.286
  H     -105.319    -123.246     -96.713
  H     -104.742    -124.274     -98.061
  P     -102.691    -124.154     -96.138
  C     -101.879    -125.689     -98.075
  O     -102.685    -125.562     -96.909
  C     -100.994    -126.927     -97.957
  O     -101.821    -128.087     -97.712
  C     -100.200    -127.250     -99.219
  O      -99.046    -126.437     -99.341
  C      -99.884    -128.724     -98.999
  O      -98.734    -128.898     -98.162
  C     -101.140    -129.230     -98.277
  N     -103.592    -133.642     -98.987
  C     -102.829    -133.187     -97.970
  N     -102.224    -131.985     -97.850
  C     -102.482    -131.217     -98.921
  C     -103.234    -131.548    -100.036
  C     -103.812    -132.827    -100.047
  N     -104.559    -133.304    -101.098
  N     -103.230    -130.511    -100.947
  C     -102.495    -129.568    -100.391
  N     -102.027    -129.950     -99.165
  O     -103.854    -124.322     -95.049
  O     -101.393    -123.762     -95.516
  H      -98.509    -129.849     -98.192
  H     -103.684    -123.729     -94.295
  H     -102.681    -133.879     -97.146
  H     -102.268    -128.606    -100.836
  H     -100.895    -129.903     -97.445
  H      -99.677    -129.230     -99.944
  H     -100.838    -127.152    -100.104
  H     -100.324    -126.798     -97.098
  H     -101.245    -124.801     -98.174
  H     -102.532    -125.762     -98.950
  H     -104.923    -134.242    -101.048
  H     -104.639    -132.745    -101.938
  P      -98.432    -126.196    -100.799
  C     -100.347    -124.458    -101.079
  O      -99.554    -125.468    -101.685
  O      -98.360    -127.671    -101.416
  O      -97.100    -125.520    -100.811
  H      -97.453    -128.022    -101.353
  H     -101.043    -124.073    -101.795
  H      -99.715    -123.666    -100.735
  H     -100.881    -124.873    -100.250

 6  7  8  9  10  11  12  13  14  15  25  28  32  33  34  35 0
 6-311+G(2d,p)
 ****
 36  37  40 0
 6-311+G(2d,p)
 ****
 1  2  3  4  5  16  17  18  19  20  21  22  23  24 0
 3-21G
 ****
 26  27  29  30  31  38  39 41  42  43  44  45  46  47  48 0
 3-21G
 ****


