%nproc=1
%NoSave
%Mem=1900MB
#P OB98/GEN NMR

erre ene a

0 1
  C     -196.933     -87.907     -80.634
  O     -197.273     -87.884     -79.263
  H     -196.264     -88.753     -80.813
  H     -196.416     -86.987     -80.921
  H     -197.830     -88.038     -81.245
  P     -198.160     -86.660     -78.720
  C     -196.087     -85.528     -77.647
  O     -197.120     -85.436     -78.618
  C     -196.121     -84.313     -76.723
  O     -195.876     -83.095     -77.459
  C     -197.455     -84.080     -76.018
  O     -197.703     -84.991     -74.961
  C     -197.246     -82.656     -75.524
  O     -196.376     -82.668     -74.379
  C     -196.542     -82.014     -76.745
  N     -197.467     -81.312     -77.633
  C     -197.039     -80.073     -78.131
  O     -195.937     -79.623     -77.823
  N     -197.889     -79.355     -78.940
  C     -199.068     -79.822     -79.212
  N     -199.888     -79.050     -79.980
  C     -199.553     -81.127     -78.724
  C     -198.715     -81.810     -77.945
  O     -198.962     -86.921     -77.485
  O     -199.050     -86.223     -79.976
  H     -196.864     -83.100     -73.655
  H     -199.625     -85.474     -79.688
  H     -200.548     -81.467     -78.974
  H     -199.006     -82.770     -77.532
  H     -195.762     -81.315     -76.423
  H     -198.176     -82.162     -75.224
  H     -198.281     -84.081     -76.739
  H     -195.299     -84.422     -76.003
  H     -199.538     -78.144     -80.261
  H     -195.131     -85.595     -78.173
  H     -200.891     -79.205     -80.003
  H     -196.222     -86.428     -77.039
  P     -199.231     -85.255     -74.541
  C     -199.280     -83.491     -72.626
  O     -199.773     -83.891     -73.892
  O     -199.090     -86.242     -73.288
  O     -200.111     -85.815     -75.615
  H     -199.155     -87.175     -73.566
  H     -199.739     -82.568     -72.340
  H     -198.220     -83.359     -72.682
  H     -199.509     -84.243     -71.900

 6  7  8  9  10  11  12  13  14  15  16  26  30  31  32  33  35 0
 6-311+G(2d,p)
 ****
 37  38 0
 6-311+G(2d,p)
 ****
 1  2  3  4  5  17  18  19  20  21  22  23  24  25 0
 3-21G
 ****
 27  28  29  34  36  39  40  41  42  43  44  45  46 0
 3-21G
 ****


