%nproc=1
%NoSave
%Mem=1900MB
#P OB98/GEN NMR

erre ene a

0 1
  C      168.467     -24.280      83.721
  O      167.333     -24.759      83.035
  P      166.015     -25.287      83.764
  C      166.282     -27.783      83.031
  O      166.205     -26.844      84.097
  C      166.312     -29.223      83.566
  O      167.470     -29.369      84.429
  C      165.075     -29.532      84.424
  O      164.521     -30.825      84.201
  C      165.548     -29.209      85.834
  O      164.768     -29.822      86.851
  C      167.013     -29.633      85.774
  N      168.793     -29.434      90.529
  C      168.087     -30.445      89.908
  N      167.649     -31.441      90.707
  N      167.811     -30.450      88.628
  C      168.217     -29.333      87.980
  C      168.924     -28.267      88.490
  C      169.253     -28.292      89.896
  O      169.778     -27.364      90.514
  N      169.102     -27.281      87.558
  C      168.474     -27.732      86.489
  N      167.891     -28.959      86.709
  O      164.709     -24.845      83.186
  O      166.156     -24.612      85.224
  H      165.254     -29.729      87.691
  H      165.250     -24.405      85.534
  H      168.906     -29.448      91.537
  H      168.382     -27.202      85.548
  H      167.132     -30.700      85.964
  H      165.457     -28.129      85.975
  H      167.720     -31.389      91.712
  H      164.250     -28.858      84.164
  H      166.927     -32.052      90.329
  H      166.430     -29.918      82.728
  H      167.213     -27.563      82.493
  H      165.453     -27.647      82.335
  P      163.018     -31.223      83.844
  C      162.552     -31.562      86.344
  O      162.103     -30.975      85.138
  O      163.028     -32.816      83.718
  O      162.490     -30.608      82.589
  H      162.452     -33.090      82.976
  H      161.726     -31.558      87.063
  H      163.381     -30.976      86.753
  H      162.877     -32.593      86.179
  H      169.214     -23.986      83.014
  H      168.856     -25.053      84.350
  H      168.192     -23.437      84.320

 3  4  5  6  7  8  9  10  11  12  23  26  30  31 0
 6-311+G(2d,p)
 ****
 33  35  36  37  38 0
 6-311+G(2d,p)
 ****
 1  2  13  14  15  16  17  18  19  20  21  22  24  25 0
 3-21G
 ****
 27  28  29  32  34  39  40  41  42  43  44  45  46  47  48  49 0
 3-21G
 ****


