%nproc=1
%NoSave
%Mem=1900MB
#P OB98/GEN NMR

erre ene a

0 1
  C       87.194     432.773     -45.540
  O       86.399     433.407     -46.528
  P       85.525     432.465     -47.497
  C       86.305     433.886     -49.525
  O       85.209     433.334     -48.808
  C       85.867     435.077     -50.384
  O       85.084     434.589     -51.499
  C       85.028     436.113     -49.630
  O       85.389     437.405     -50.120
  C       83.608     435.801     -50.067
  O       82.758     436.939     -49.941
  C       83.837     435.314     -51.504
  N       82.736     434.484     -51.988
  C       81.567     435.144     -52.373
  O       81.467     436.362     -52.223
  N       80.518     434.407     -52.870
  C       80.595     433.112     -52.874
  N       79.531     432.427     -53.373
  C       81.765     432.371     -52.360
  C       82.795     433.110     -51.958
  O       84.113     432.400     -46.746
  O       86.105     431.111     -47.735
  H       83.026     437.597     -50.620
  H       83.680     431.540     -46.900
  H       81.763     431.290     -52.352
  H       83.705     432.652     -51.587
  H       83.954     436.169     -52.188
  H       83.198     434.994     -49.448
  H       85.176     436.073     -48.547
  H       86.768     435.545     -50.799
  H       78.738     432.956     -53.705
  H       86.717     433.120     -50.191
  H       79.506     431.418     -53.418
  H       87.087     434.186     -48.820
  P       85.960     438.470     -49.062
  C       83.826     439.775     -49.658
  O       85.219     439.848     -49.421
  O       87.432     438.739     -49.641
  O       86.008     438.081     -47.626
  H       87.917     439.334     -49.040
  H       83.430     440.787     -49.753
  H       83.320     439.272     -48.827
  H       83.635     439.235     -50.592
  H       87.717     433.515     -44.973
  H       87.900     432.123     -46.013
  H       86.565     432.203     -44.888

 3  4  5  6  7  8  9  10  11  12  13  21  23  27  28  29  30  32 0
 6-311+G(2d,p)
 ****
 34  35 0
 6-311+G(2d,p)
 ****
 1  2  14  15  16  17  18  19  20  22  24  25  26 0
 3-21G
 ****
 31  33  36  37  38  39  40  41  42  43  44  45  46 0
 3-21G
 ****


