%nproc=1
%NoSave
%Mem=1900MB
#P OB98/GEN NMR

erre ene a

0 1
  C      674.036     453.076     243.314
  O      673.592     451.829     242.766
  P      672.975     450.743     243.770
  C      675.290     449.765     244.444
  O      674.084     450.385     244.869
  C      676.103     449.272     245.656
  O      676.550     450.350     246.490
  C      675.318     448.340     246.567
  O      675.290     447.010     246.073
  C      676.141     448.429     247.848
  O      677.298     447.565     247.743
  C      676.573     449.894     247.862
  N      676.033     452.245     252.383
  C      677.004     451.438     251.900
  N      677.071     450.826     250.689
  C      675.995     451.156     249.939
  C      674.937     451.966     250.303
  C      674.972     452.542     251.579
  N      673.987     453.375     252.070
  N      674.019     452.072     249.273
  C      674.524     451.333     248.300
  N      675.720     450.748     248.657
  O      672.896     449.415     242.880
  O      671.630     451.114     244.313
  H      677.861     447.749     248.531
  H      672.112     448.891     243.131
  H      677.833     451.243     252.569
  H      674.077     451.186     247.327
  H      677.604     450.025     248.226
  H      675.578     448.091     248.738
  H      674.300     448.734     246.749
  H      676.995     448.738     245.261
  H      675.896     450.460     243.860
  H      674.111     453.767     252.998
  H      673.216     453.614     251.471
  H      675.058     448.922     243.766
  P      673.905     446.453     245.498
  C      674.099     444.012     246.349
  O      673.460     445.258     246.479
  O      674.335     445.727     244.153
  O      672.878     447.510     245.264
  H      673.607     445.759     243.498
  H      673.921     443.420     247.255
  H      675.190     444.110     246.213
  H      673.690     443.468     245.489
  H      674.420     453.694     242.529
  H      674.806     452.895     244.035
  H      673.214     453.571     243.787

 3  4  5  6  7  8  9  10  11  12  22  25  29  30  31  32 0
 6-311+G(2d,p)
 ****
 33  36  37 0
 6-311+G(2d,p)
 ****
 1  2  13  14  15  16  17  18  19  20  21  23  24  26 0
 3-21G
 ****
 27  28  34  35  38  39  40  41  42  43  44  45  46  47  48 0
 3-21G
 ****


