%nproc=1
%NoSave
%Mem=1900MB
#P OB98/GEN NMR

erre ene a

0 1
  C     -150.072     -38.773     163.306
  O     -150.403     -37.997     164.442
  P     -149.299     -37.088     165.160
  C     -149.572     -35.129     163.534
  O     -148.679     -36.108     164.049
  C     -148.844     -34.131     162.634
  O     -149.816     -33.215     162.057
  C     -147.781     -33.283     163.343
  O     -146.735     -33.050     162.393
  C     -148.518     -31.982     163.617
  O     -147.642     -30.884     163.837
  C     -149.363     -31.877     162.354
  N     -152.392     -28.470     160.044
  C     -151.296     -29.131     159.617
  N     -150.530     -30.005     160.299
  C     -150.996     -30.170     161.549
  C     -152.081     -29.540     162.135
  C     -152.811     -28.658     161.318
  N     -153.949     -28.002     161.724
  N     -152.206     -29.928     163.456
  C     -151.216     -30.773     163.656
  N     -150.500     -31.000     162.516
  O     -148.287     -37.833     165.965
  O     -150.152     -36.098     166.080
  H     -146.962     -31.157     164.480
  H     -150.070     -36.363     167.019
  H     -150.999     -28.942     158.587
  H     -150.979     -31.247     164.599
  H     -148.781     -31.520     161.496
  H     -149.147     -32.097     164.508
  H     -147.380     -33.739     164.253
  H     -148.397     -34.688     161.800
  H     -150.012     -34.594     164.380
  H     -154.469     -27.503     161.020
  H     -154.429     -28.323     162.562
  H     -150.381     -35.619     162.979
  P     -145.252     -32.713     162.903
  C     -144.581     -35.148     162.470
  O     -144.626     -34.093     163.417
  O     -145.146     -31.568     163.852
  O     -144.446     -32.434     161.544
  H     -143.619     -31.956     161.749
  H     -145.562     -35.622     162.412
  H     -143.841     -35.885     162.795
  H     -144.297     -34.774     161.482
  H     -150.938     -39.307     162.974
  H     -149.301     -39.469     163.562
  H     -149.727     -38.130     162.523

 3  4  5  6  7  8  9  10  11  12  22  25  29  30  31  32 0
 6-311+G(2d,p)
 ****
 33  36  37 0
 6-311+G(2d,p)
 ****
 1  2  13  14  15  16  17  18  19  20  21  23  24  26 0
 3-21G
 ****
 27  28  34  35  38  39  40  41  42  43  44  45  46  47  48 0
 3-21G
 ****


