%nproc=1
%NoSave
%Mem=1900MB
#P OB98/GEN NMR

erre ene a

0 1
  C      175.712    -411.625     314.988
  O      174.625    -412.537     315.198
  P      174.720    -413.600     316.395
  C      175.892    -415.496     315.097
  O      175.991    -414.550     316.154
  C      176.379    -416.885     315.546
  O      175.759    -417.913     314.724
  C      177.905    -417.047     315.437
  O      178.511    -417.535     316.631
  C      178.079    -417.916     314.200
  O      179.312    -418.622     314.184
  C      176.796    -418.764     314.202
  N      176.468    -419.264     312.853
  C      176.594    -420.631     312.660
  O      177.019    -421.403     313.516
  N      176.250    -421.088     311.407
  C      175.891    -420.318     310.347
  O      175.645    -420.767     309.230
  C      175.845    -418.863     310.597
  C      176.128    -418.417     311.827
  O      173.449    -414.314     316.729
  O      175.196    -412.701     317.638
  H      179.363    -419.172     314.999
  H      174.733    -413.011     318.438
  H      176.320    -422.088     311.256
  H      175.586    -418.222     309.773
  H      176.117    -417.348     312.035
  H      176.902    -419.633     314.854
  H      178.072    -417.271     313.313
  H      178.395    -416.079     315.264
  H      176.063    -417.022     316.580
  H      176.502    -415.159     314.255
  H      174.854    -415.529     314.731
  P      179.078    -416.600     317.799
  C      181.392    -416.087     316.734
  O      180.144    -415.583     317.159
  O      179.562    -417.312     319.024
  O      177.833    -415.657     318.163
  H      177.791    -415.539     319.128
  H      182.104    -415.255     316.681
  H      181.285    -416.526     315.739
  H      181.776    -416.843     317.426
  H      175.489    -410.990     314.156
  H      176.606    -412.177     314.786
  H      175.852    -411.028     315.865

 3  4  5  6  7  8  9  10  11  12  13  23  28  29  30  31  32 0
 6-311+G(2d,p)
 ****
 33  34 0
 6-311+G(2d,p)
 ****
 1  2  14  15  16  17  18  19  20  21  22  24  25  26  27 0
 3-21G
 ****
 35  36  37  38  39  40  41  42  43  44  45 0
 3-21G
 ****


