%nproc=1
%NoSave
%Mem=1900MB
#P OB98/GEN NMR

erre ene a

0 1
  C     -111.589     285.701     -65.673
  O     -111.270     284.300     -65.615
  P     -112.166     283.259     -66.448
  C     -113.777     282.846     -64.428
  O     -113.631     283.204     -65.794
  C     -115.183     282.289     -64.177
  O     -116.183     283.154     -64.758
  C     -115.434     280.920     -64.797
  O     -114.832     279.880     -64.045
  C     -116.958     280.865     -64.792
  O     -117.456     280.457     -63.508
  C     -117.328     282.335     -65.077
  N     -117.772     282.549     -66.450
  C     -119.146     282.512     -66.668
  O     -119.961     282.258     -65.785
  N     -119.554     282.749     -67.955
  C     -118.736     282.943     -69.032
  O     -119.161     283.128     -70.164
  C     -117.293     282.888     -68.755
  C     -116.887     282.692     -67.496
  O     -111.549     281.850     -65.992
  O     -112.117     283.402     -67.934
  H     -117.153     279.537     -63.370
  H     -111.673     281.196     -66.704
  H     -120.544     282.757     -68.128
  H     -116.611     283.014     -69.584
  H     -115.822     282.650     -67.277
  H     -118.127     282.661     -64.398
  H     -117.352     280.160     -65.532
  H     -115.078     280.909     -65.832
  H     -115.350     282.255     -63.091
  H     -113.627     283.730     -63.804
  H     -113.016     282.100     -64.173
  P     -113.779     278.946     -64.823
  C     -115.596     277.094     -65.152
  O     -114.669     277.982     -65.741
  O     -113.255     278.018     -63.625
  O     -112.714     279.723     -65.518
  H     -113.952     277.840     -62.970
  H     -116.031     277.511     -64.238
  H     -115.090     276.151     -64.915
  H     -116.397     276.895     -65.867
  H     -110.899     286.249     -65.066
  H     -112.584     285.856     -65.311
  H     -111.521     286.041     -66.685

 3  4  5  6  7  8  9  10  11  12  13  23  28  29  30  31  32 0
 6-311+G(2d,p)
 ****
 33  34 0
 6-311+G(2d,p)
 ****
 1  2  14  15  16  17  18  19  20  21  22  24  25  26 0
 3-21G
 ****
 27  35  36  37  38  39  40  41  42  43  44  45 0
 3-21G
 ****


