%nproc=1
%NoSave
%Mem=1900MB
#P OB98/GEN NMR

erre ene a

0 1
  C     -607.419    -174.414     371.600
  O     -606.027    -174.419     371.881
  P     -605.027    -174.619     370.647
  C     -602.659    -173.674     370.121
  O     -603.897    -173.502     370.800
  C     -601.697    -172.539     370.443
  O     -602.221    -171.280     369.960
  C     -601.464    -172.334     371.933
  O     -600.569    -173.321     372.439
  C     -600.898    -170.915     371.967
  O     -599.476    -170.914     371.765
  C     -601.637    -170.235     370.779
  N     -602.647    -169.285     371.209
  C     -602.161    -168.048     371.667
  O     -600.946    -167.842     371.696
  N     -603.055    -167.113     372.114
  C     -604.332    -167.378     372.102
  N     -605.166    -166.411     372.548
  C     -604.879    -168.674     371.646
  C     -603.977    -169.575     371.234
  O     -605.889    -174.106     369.386
  O     -604.534    -176.023     370.458
  H     -599.248    -169.996     371.533
  H     -605.587    -174.531     368.561
  H     -605.946    -168.842     371.659
  H     -604.314    -170.549     370.877
  H     -600.929    -169.711     370.128
  H     -601.086    -170.426     372.934
  H     -602.417    -172.375     372.479
  H     -600.738    -172.722     369.923
  H     -604.766    -165.525     372.861
  H     -602.845    -173.682     369.025
  H     -606.180    -166.504     372.568
  H     -602.230    -174.647     370.390
  P     -600.576    -173.598     374.017
  C     -600.116    -175.636     375.488
  O     -600.195    -175.133     374.169
  O     -602.142    -173.598     374.349
  O     -599.826    -172.625     374.887
  H     -602.278    -173.659     375.314
  H     -600.004    -176.723     375.454
  H     -601.021    -175.399     376.048
  H     -599.248    -175.208     376.001
  H     -607.966    -174.273     372.509
  H     -607.697    -175.348     371.158
  H     -607.643    -173.618     370.921

 3  4  5  6  7  8  9  10  11  12  13  21  23  27  28  29  30  32 0
 6-311+G(2d,p)
 ****
 34  35 0
 6-311+G(2d,p)
 ****
 1  2  14  15  16  17  18  19  20  22  24  25  26 0
 3-21G
 ****
 31  33  36  37  38  39  40  41  42  43  44  45  46 0
 3-21G
 ****


