%nproc=1
%NoSave
%Mem=1900MB
#P OB98/GEN NMR

erre ene a

0 1
  C     -108.442     116.536     152.548
  O     -107.889     117.835     152.465
  H     -109.009     116.337     151.636
  H     -109.118     116.476     153.404
  H     -107.650     115.789     152.644
  P     -106.936     118.296     153.671
  C     -107.303     119.364     156.006
  O     -107.902     118.913     154.799
  C     -108.317     119.354     157.148
  O     -109.214     120.495     156.995
  C     -109.189     118.089     157.209
  O     -109.448     117.794     158.587
  C     -110.491     118.545     156.569
  O     -111.599     117.728     156.942
  C     -110.557     119.983     157.088
  N     -112.380     124.648     156.598
  C     -111.392     124.152     157.429
  N     -110.796     125.036     158.258
  N     -111.022     122.901     157.445
  C     -111.678     122.135     156.539
  C     -112.676     122.501     155.667
  C     -113.097     123.887     155.678
  O     -113.979     124.380     154.979
  N     -113.108     121.425     154.932
  C     -112.371     120.413     155.357
  N     -111.490     120.795     156.332
  O     -106.198     119.580     153.062
  O     -105.967     117.268     154.150
  H     -111.400     116.809     156.667
  H     -105.345     119.322     152.664
  H     -112.636     125.618     156.634
  H     -112.438     119.394     154.999
  H     -110.872     120.033     158.138
  H     -110.404     118.526     155.476
  H     -110.997     126.023     158.268
  H     -108.751     117.213     156.718
  H     -110.040     124.701     158.843
  H     -107.780     119.502     158.093
  H     -106.936     120.386     155.860
  H     -106.455     118.714     156.253
  P     -109.273     116.280     159.079
  C     -110.586     114.049     158.820
  O     -110.570     115.454     158.623
  O     -109.471     116.396     160.664
  O     -107.957     115.668     158.728
  H     -108.980     115.681     161.113
  H     -111.514     113.650     158.466
  H     -110.480     113.834     159.863
  H     -109.777     113.604     158.280

 6  7  8  9  10  11  12  13  14  15  26  29  33  34 0
 6-311+G(2d,p)
 ****
 36  38  39  40  41 0
 6-311+G(2d,p)
 ****
 1  2  3  4  5  16  17  18  19  20  21  22  23  24  25 0
 3-21G
 ****
 27  28  30  31  32  35  37  42  43  44  45  46  47 0
 3-21G
 ****
 48  49 0
 3-21G
 ****


