%nproc=1
%NoSave
%Mem=1900MB
#P OB98/GEN NMR

erre ene a

0 1
  C      -64.128     249.162     268.073
  O      -64.304     249.342     269.483
  P      -64.121     250.802     270.116
  C      -66.092     252.166     269.159
  O      -65.571     251.479     270.292
  C      -67.498     252.710     269.454
  O      -68.477     251.627     269.451
  C      -67.590     253.396     270.826
  O      -68.531     254.481     270.782
  C      -68.179     252.308     271.708
  O      -68.785     252.850     272.883
  C      -69.145     251.642     270.728
  N      -71.804     248.808     274.079
  C      -71.710     250.149     273.902
  N      -71.002     250.827     272.977
  C      -70.346     249.984     272.163
  C      -70.352     248.593     272.212
  C      -71.116     248.001     273.233
  N      -71.184     246.639     273.428
  N      -69.554     248.066     271.218
  C      -69.039     249.117     270.606
  N      -69.514     250.295     271.121
  O      -63.094     251.669     269.456
  O      -63.709     250.482     271.634
  H      -69.352     253.593     272.604
  H      -62.992     251.092     271.906
  H      -72.284     250.753     274.607
  H      -68.314     249.078     269.805
  H      -70.069     252.219     270.612
  H      -67.385     251.611     272.020
  H      -66.637     253.770     271.213
  H      -67.785     253.404     268.652
  H      -66.122     251.495     268.300
  H      -71.664     246.308     274.253
  H      -70.565     246.039     272.900
  H      -65.403     252.973     268.881
  P      -68.216     255.734     271.751
  C      -66.494     256.787     270.083
  O      -67.707     256.913     270.789
  O      -67.322     255.383     272.897
  O      -69.687     256.184     272.200
  H      -70.316     256.305     271.464
  H      -66.402     257.632     269.391
  H      -66.479     255.858     269.495
  H      -65.653     256.795     270.779
  H      -64.286     248.134     267.822
  H      -63.134     249.447     267.798
  H      -64.833     249.770     267.545

 3  4  5  6  7  8  9  10  11  12  22  25  29  30  31  32 0
 6-311+G(2d,p)
 ****
 33  36  37 0
 6-311+G(2d,p)
 ****
 1  2  13  14  15  16  17  18  19  20  21  23  24  26 0
 3-21G
 ****
 27  28  34  35  38  39  40  41  42  43  44  45  46  47  48 0
 3-21G
 ****


