%nproc=1
%NoSave
%Mem=1900MB
#P OB98/GEN NMR

erre ene a

0 1
  C      184.012    -378.586      36.089
  O      184.057    -377.223      36.490
  P      185.156    -376.786      37.574
  C      186.608    -375.147      36.184
  O      186.499    -376.441      36.763
  C      188.017    -374.581      36.359
  O      188.270    -374.373      37.777
  C      189.136    -375.484      35.827
  O      190.179    -374.627      35.344
  C      189.618    -376.200      37.073
  O      190.938    -376.724      36.917
  C      189.487    -375.082      38.103
  N      191.909    -375.347      42.598
  C      192.228    -374.738      41.437
  N      191.534    -374.708      40.283
  C      190.391    -375.410      40.401
  C      189.948    -376.115      41.505
  C      190.760    -376.066      42.653
  N      190.431    -376.681      43.838
  N      188.743    -376.732      41.237
  C      188.466    -376.407      39.993
  N      189.421    -375.588      39.458
  O      185.501    -378.170      38.301
  O      184.708    -375.756      38.549
  H      191.540    -375.982      36.723
  H      185.175    -378.153      39.219
  H      193.169    -374.191      41.439
  H      187.597    -376.734      39.439
  H      190.318    -374.368      38.047
  H      188.950    -377.041      37.302
  H      188.817    -376.173      35.038
  H      188.055    -373.598      35.876
  H      185.899    -374.480      36.683
  H      190.991    -376.484      44.652
  H      189.493    -377.057      43.949
  H      186.351    -375.199      35.122
  P      190.881    -375.044      33.964
  C      190.029    -372.785      33.019
  O      190.190    -374.180      32.813
  O      190.334    -376.527      33.709
  O      192.372    -375.009      34.006
  H      190.981    -377.035      33.181
  H      190.121    -372.276      32.060
  H      190.777    -372.386      33.708
  H      189.029    -372.599      33.430
  H      183.233    -378.720      35.367
  H      183.818    -379.202      36.942
  H      184.951    -378.862      35.656

 3  4  5  6  7  8  9  10  11  12  22  25  29  30  31  32 0
 6-311+G(2d,p)
 ****
 33  36  37 0
 6-311+G(2d,p)
 ****
 1  2  13  14  15  16  17  18  19  20  21  23  24  26 0
 3-21G
 ****
 27  28  34  35  38  39  40  41  42  43  44  45  46  47  48 0
 3-21G
 ****


