%nproc=1
%NoSave
%Mem=1900MB
#P OB98/GEN NMR

erre ene a

0 1
  C       37.602      82.479      19.892
  O       36.411      83.136      19.458
  P       35.203      82.257      18.878
  C       36.039      82.726      16.487
  O       35.600      81.740      17.410
  C       36.535      82.074      15.189
  O       37.670      81.200      15.456
  C       35.457      81.218      14.512
  O       35.603      81.262      13.083
  C       35.804      79.815      14.970
  O       35.246      78.826      14.108
  C       37.329      79.886      14.970
  N       40.869      76.189      15.127
  C       40.556      77.093      14.173
  N       39.617      78.062      14.210
  C       38.974      78.055      15.389
  C       39.190      77.200      16.459
  C       40.186      76.223      16.295
  N       40.484      75.283      17.255
  N       38.333      77.490      17.502
  C       37.581      78.472      17.048
  N       37.950      78.869      15.792
  O       33.848      82.870      18.984
  O       35.293      80.914      19.750
  H       35.390      79.123      13.190
  H       34.391      80.633      19.996
  H       41.134      77.025      13.255
  H       36.752      78.918      17.579
  H       37.740      79.791      13.958
  H       35.415      79.648      15.981
  H       34.430      81.494      14.768
  H       36.888      82.858      14.509
  H       36.838      83.320      16.934
  H       41.131      74.551      17.004
  H       39.884      75.205      18.065
  H       35.218      83.425      16.292
  P       34.713      82.363      12.316
  C       32.980      80.504      11.703
  O       33.227      81.769      12.275
  O       35.290      82.790      11.008
  O       34.639      83.538      13.400
  H       34.373      83.256      14.290
  H       31.939      80.231      11.888
  H       33.625      79.743      12.149
  H       33.146      80.542      10.622
  H       38.301      83.207      20.248
  H       38.032      81.942      19.073
  H       37.365      81.796      20.681

 3  4  5  6  7  8  9  10  11  12  22  25  29  30  31  32 0
 6-311+G(2d,p)
 ****
 33  36  37 0
 6-311+G(2d,p)
 ****
 1  2  13  14  15  16  17  18  19  20  21  23  24  26 0
 3-21G
 ****
 27  28  34  35  38  39  40  41  42  43  44  45  46  47  48 0
 3-21G
 ****


