%nproc=1
%NoSave
%Mem=1900MB
#P OB98/GEN NMR

erre ene a

0 1
  C      153.657    -274.429     148.436
  O      153.562    -275.699     147.818
  H      153.060    -273.712     147.865
  H      154.697    -274.093     148.446
  H      153.273    -274.477     149.458
  P      154.345    -276.904     148.534
  C      152.253    -278.393     148.969
  O      153.470    -278.221     148.260
  C      151.489    -279.612     148.424
  O      150.921    -279.265     147.127
  C      152.378    -280.851     148.207
  O      151.577    -282.030     148.391
  C      152.743    -280.722     146.737
  O      153.237    -281.938     146.240
  C      151.400    -280.245     146.182
  N      151.215    -281.290     141.192
  C      150.981    -282.054     142.281
  N      151.046    -281.699     143.581
  C      151.362    -280.392     143.700
  C      151.625    -279.492     142.687
  C      151.553    -279.988     141.372
  N      151.805    -279.219     140.258
  N      151.937    -278.249     143.209
  C      151.852    -278.401     144.517
  N      151.507    -279.679     144.858
  O      154.121    -276.611     150.091
  O      155.794    -277.030     148.189
  H      152.539    -282.626     146.223
  H      154.861    -276.081     150.442
  H      150.716    -283.092     142.085
  H      152.041    -277.629     145.255
  H      150.664    -281.060     146.138
  H      153.521    -279.964     146.589
  H      153.244    -280.888     148.876
  H      150.642    -279.836     149.088
  H      151.644    -277.490     148.846
  H      152.467    -278.547     150.031
  H      151.757    -279.660     139.358
  H      152.090    -278.259     140.381
  P      151.833    -282.957     149.685
  C      149.388    -283.620     150.310
  O      150.655    -284.047     149.837
  O      151.517    -281.944     150.888
  O      153.216    -283.505     149.817
  H      152.218    -282.013     151.565
  H      148.723    -284.457     150.353
  H      148.990    -282.882     149.646
  H      149.496    -283.199     151.288

 6  7  8  9  10  11  12  13  14  15  25  28  32  33  34  35 0
 6-311+G(2d,p)
 ****
 36  37  40 0
 6-311+G(2d,p)
 ****
 1  2  3  4  5  16  17  18  19  20  21  22  23  24 0
 3-21G
 ****
 26  27  29  30  31  38  39 41  42  43  44  45  46  47  48 0
 3-21G
 ****


