%nproc=1
%NoSave
%Mem=1900MB
#P OB98/GEN NMR

erre ene a

0 1
  C       80.982     642.867    -532.379
  O       81.637     642.060    -533.363
  P       80.822     641.318    -534.545
  C       82.991     641.152    -535.924
  O       81.614     641.521    -535.918
  C       83.547     641.044    -537.349
  O       83.165     639.787    -537.943
  C       83.053     642.134    -538.305
  O       83.767     643.334    -538.096
  C       83.311     641.469    -539.658
  O       84.685     641.602    -540.040
  C       82.971     639.996    -539.378
  N       80.029     638.199    -543.153
  C       81.359     638.425    -543.064
  N       82.069     638.913    -542.020
  C       81.267     639.149    -540.984
  C       79.885     638.982    -540.917
  C       79.262     638.490    -542.069
  N       77.899     638.276    -542.163
  N       79.407     639.361    -539.686
  C       80.480     639.749    -539.001
  N       81.627     639.632    -539.742
  O       79.372     641.688    -534.601
  O       81.006     639.753    -534.247
  H       84.969     642.503    -539.820
  H       80.235     639.257    -534.587
  H       81.941     638.172    -543.959
  H       80.456     640.102    -537.976
  H       83.649     639.319    -539.879
  H       82.704     641.911    -540.466
  H       81.987     642.298    -538.170
  H       84.643     641.044    -537.282
  H       83.082     640.184    -535.428
  H       77.527     637.937    -543.030
  H       77.312     638.523    -541.385
  H       83.548     641.901    -535.371
  P       83.066     644.550    -537.311
  C       85.076     644.922    -535.760
  O       83.692     644.609    -535.841
  O       81.571     644.566    -537.368
  O       83.686     645.847    -538.014
  H       83.033     646.585    -537.964
  H       85.671     644.031    -535.981
  H       85.294     645.257    -534.738
  H       85.328     645.719    -536.469
  H       81.708     643.258    -531.698
  H       80.274     642.271    -531.842
  H       80.474     643.675    -532.862

 3  4  5  6  7  8  9  10  11  12  22  25  29  30  31  32 0
 6-311+G(2d,p)
 ****
 33  36  37 0
 6-311+G(2d,p)
 ****
 1  2  13  14  15  16  17  18  19  20  21  23  24  26 0
 3-21G
 ****
 27  28  34  35  38  39  40  41  42  43  44  45  46  47  48 0
 3-21G
 ****


