%nproc=1
%NoSave
%Mem=1900MB
#P OB98/GEN NMR

erre ene a

0 1
  C       34.597     -29.318     -35.800
  O       35.196     -28.025     -35.689
  P       36.714     -27.868     -35.192
  C       36.310     -28.445     -32.730
  O       36.962     -28.839     -33.933
  C       37.212     -28.539     -31.491
  O       37.466     -29.922     -31.136
  C       38.577     -27.852     -31.632
  O       38.903     -27.353     -30.331
  C       39.480     -29.013     -32.011
  O       40.859     -28.725     -31.787
  C       38.892     -30.137     -31.150
  N       39.237     -31.464     -31.654
  C       39.986     -32.287     -30.811
  O       40.379     -31.866     -29.717
  N       40.318     -33.550     -31.241
  C       40.018     -33.917     -32.451
  N       40.395     -35.169     -32.829
  C       39.300     -33.047     -33.406
  C       38.936     -31.848     -32.942
  O       37.158     -26.452     -34.978
  O       37.572     -28.552     -36.364
  H       40.965     -28.440     -30.852
  H       38.446     -28.117     -36.418
  H       39.093     -33.386     -34.412
  H       38.403     -31.145     -33.566
  H       39.248     -30.058     -30.112
  H       39.361     -29.245     -33.076
  H       38.584     -27.051     -32.376
  H       36.660     -28.097     -30.652
  H       40.908     -35.725     -32.150
  H       35.431     -29.088     -32.583
  H       40.314     -35.511     -33.777
  H       35.941     -27.418     -32.844
  P       38.632     -25.831     -29.914
  C       41.131     -25.350     -30.225
  O       39.811     -24.958     -30.562
  O       38.425     -25.606     -28.452
  O       37.340     -25.389     -30.762
  H       36.952     -24.593     -30.361
  H       41.833     -24.830     -30.882
  H       41.257     -26.431     -30.349
  H       41.341     -25.076     -29.188
  H       33.589     -29.216     -36.144
  H       34.600     -29.796     -34.843
  H       35.153     -29.910     -36.496

 3  4  5  6  7  8  9  10  11  12  13  23  27  28  29  30  32 0
 6-311+G(2d,p)
 ****
 34  35 0
 6-311+G(2d,p)
 ****
 1  2  14  15  16  17  18  19  20  21  22  24  25  26 0
 3-21G
 ****
 31  33  36  37  38  39  40  41  42  43  44  45  46 0
 3-21G
 ****


