%nproc=1
%NoSave
%Mem=1900MB
#P OB98/GEN NMR

erre ene a

0 1
  C     -134.939      12.581     -47.573
  O     -134.191      11.637     -48.339
  P     -134.559      11.435     -49.885
  C     -132.348      10.111     -49.837
  O     -133.604      10.293     -50.483
  C     -131.330       9.488     -50.793
  O     -131.736       8.173     -51.223
  C     -131.141      10.286     -52.074
  O     -130.379      11.459     -51.831
  C     -130.479       9.257     -52.973
  O     -129.066       9.181     -52.719
  C     -131.166       7.947     -52.530
  N     -132.171       7.478     -53.472
  C     -131.684       6.881     -54.642
  O     -130.471       6.814     -54.845
  N     -132.587       6.394     -55.557
  C     -133.859       6.498     -55.324
  N     -134.704       5.993     -56.265
  C     -134.412       7.129     -54.113
  C     -133.519       7.600     -53.241
  O     -134.641      12.685     -50.699
  O     -135.982      10.694     -49.817
  H     -128.651       9.826     -53.324
  H     -136.501      10.940     -50.607
  H     -135.483       7.188     -53.964
  H     -133.841       8.081     -52.327
  H     -130.422       7.148     -52.411
  H     -130.602       9.505     -54.033
  H     -132.122      10.562     -52.486
  H     -130.372       9.401     -50.262
  H     -134.299       5.578     -57.093
  H     -132.481       9.466     -48.963
  H     -135.707       5.984     -56.154
  H     -131.999      11.080     -49.462
  P     -131.051      12.871     -52.188
  C     -130.203      14.622     -50.475
  O     -130.031      14.025     -51.746
  O     -132.236      12.989     -51.113
  O     -131.579      12.979     -53.583
  H     -132.991      13.458     -51.510
  H     -129.275      15.136     -50.204
  H     -130.423      13.873     -49.710
  H     -131.012      15.352     -50.517
  H     -134.572      12.596     -46.568
  H     -135.972      12.301     -47.571
  H     -134.835      13.554     -48.006

 3  4  5  6  7  8  9  10  11  12  13  23  27  28  29  30  32 0
 6-311+G(2d,p)
 ****
 34  35 0
 6-311+G(2d,p)
 ****
 1  2  14  15  16  17  18  19  20  21  22  24  25  26 0
 3-21G
 ****
 31  33  36  37  38  39  40  41  42  43  44  45  46 0
 3-21G
 ****


