%nproc=1
%NoSave
%Mem=1900MB
#P OB98/GEN NMR

erre ene a

0 1
  C      -45.937      -9.522      59.074
  O      -46.627     -10.731      58.807
  P      -47.955     -11.031      59.661
  C      -46.742     -12.764      61.169
  O      -47.462     -11.539      61.102
  C      -46.464     -13.167      62.618
  O      -45.791     -12.073      63.288
  C      -47.718     -13.516      63.421
  O      -47.389     -14.593      64.299
  C      -47.968     -12.267      64.247
  O      -48.714     -12.556      65.427
  C      -46.532     -11.777      64.490
  N      -46.482     -10.354      64.812
  C      -46.973      -9.973      66.063
  O      -47.493     -10.809      66.803
  N      -46.913      -8.649      66.424
  C      -46.498      -7.769      65.565
  N      -46.454      -6.472      65.970
  C      -46.087      -8.116      64.191
  C      -46.083      -9.414      63.893
  O      -48.527     -12.358      58.977
  O      -48.953      -9.920      59.668
  H      -49.648     -12.717      65.164
  H      -49.502     -12.378      59.019
  H      -45.785      -7.340      63.502
  H      -45.774      -9.763      62.916
  H      -46.067     -12.337      65.313
  H      -48.528     -11.535      63.653
  H      -48.563     -13.799      62.788
  H      -45.770     -14.017      62.609
  H      -46.756      -6.258      66.912
  H      -45.783     -12.641      60.658
  H      -46.146      -5.718      65.370
  H      -47.307     -13.546      60.651
  P      -48.550     -15.639      64.662
  C      -48.579     -14.925      67.128
  O      -49.309     -14.995      65.920
  O      -47.713     -16.815      65.362
  O      -49.399     -16.167      63.555
  H      -48.306     -17.557      65.578
  H      -49.158     -14.348      67.854
  H      -47.619     -14.429      66.968
  H      -48.421     -15.932      67.527
  H      -45.079      -9.453      58.438
  H      -45.625      -9.508      60.097
  H      -46.586      -8.692      58.888

 3  4  5  6  7  8  9  10  11  12  13  21  23  27  28  29  30  32 0
 6-311+G(2d,p)
 ****
 34  35 0
 6-311+G(2d,p)
 ****
 1  2  14  15  16  17  18  19  20  22  24  25  26 0
 3-21G
 ****
 31  33  36  37  38  39  40  41  42  43  44  45  46 0
 3-21G
 ****


