%nproc=1
%NoSave
%Mem=1900MB
#P OB98/GEN NMR

erre ene a

0 1
  C     -100.384      60.602    -174.571
  O     -100.201      59.698    -175.642
  H     -101.113      61.368    -174.848
  H     -100.761      60.052    -173.705
  H      -99.433      61.072    -174.304
  P      -99.665      60.326    -177.018
  C     -100.717      61.586    -179.018
  O     -100.945      60.937    -177.777
  C     -102.039      62.095    -179.592
  O     -102.879      60.944    -179.876
  C     -102.813      63.033    -178.653
  O     -103.206      64.227    -179.343
  C     -104.063      62.250    -178.293
  O     -105.208      63.076    -178.125
  C     -104.210      61.296    -179.473
  N     -108.527      58.739    -180.377
  C     -107.865      59.656    -181.109
  N     -106.670      60.229    -180.858
  C     -106.134      59.736    -179.726
  C     -106.682      58.781    -178.884
  C     -107.950      58.287    -179.235
  N     -108.651      57.392    -178.460
  N     -105.845      58.533    -177.812
  C     -104.831      59.361    -177.981
  N     -104.969      60.116    -179.115
  O      -99.291      59.033    -177.889
  O      -98.499      61.243    -176.870
  H     -105.906      62.530    -177.723
  H      -98.337      59.058    -178.096
  H     -108.362      59.981    -182.021
  H     -104.003      59.482    -177.296
  H     -104.702      61.776    -180.327
  H     -103.887      61.704    -177.358
  H     -102.240      63.301    -177.761
  H     -101.838      62.590    -180.550
  H     -100.269      60.880    -179.726
  H     -109.600      57.179    -178.725
  H     -108.272      57.139    -177.556
  H     -100.024      62.420    -178.865
  P     -102.391      65.562    -178.969
  C     -102.939      67.822    -177.807
  O     -103.333      66.476    -178.039
  O     -102.330      66.354    -180.359
  O     -101.024      65.302    -178.430
  H     -101.402      66.543    -180.593
  H     -103.658      68.300    -177.176
  H     -102.881      68.343    -178.740
  H     -101.981      67.836    -177.331

 6  7  8  9  10  11  12  13  14  15  25  28  32  33  34  35 0
 6-311+G(2d,p)
 ****
 36  39  40 0
 6-311+G(2d,p)
 ****
 1  2  3  4  5  16  17  18  19  20  21  22  23  24 0
 3-21G
 ****
 26  27  29  30  31  37  38  41  42  43  44  45  46  47  48 0
 3-21G
 ****


