%nproc=1
%NoSave
%Mem=1900MB
#P OB98/GEN NMR

erre ene a

0 1
  C      381.416     129.190    -329.140
  O      380.423     129.250    -330.146
  H      381.683     130.210    -328.850
  H      382.310     128.684    -329.512
  H      381.031     128.669    -328.256
  P      379.898     127.882    -330.794
  C      377.862     127.370    -332.305
  O      378.912     128.289    -332.000
  C      376.728     128.093    -333.041
  O      376.033     128.921    -332.075
  C      377.241     129.001    -334.173
  O      376.607     128.745    -335.430
  C      377.110     130.403    -333.587
  O      376.949     131.430    -334.545
  C      375.936     130.256    -332.605
  N      375.942     131.243    -331.526
  C      375.501     132.530    -331.831
  O      375.080     132.893    -332.933
  N      375.538     133.430    -330.797
  C      375.971     133.179    -329.530
  O      375.980     134.030    -328.641
  C      376.447     131.812    -329.271
  C      376.415     130.920    -330.267
  O      379.342     126.883    -329.837
  O      381.181     127.306    -331.567
  H      376.752     132.261    -334.058
  H      381.578     126.582    -331.043
  H      375.210     134.361    -331.002
  H      376.809     131.582    -328.278
  H      376.758     129.899    -330.112
  H      374.985     130.345    -333.134
  H      378.023     130.624    -333.022
  H      378.300     128.802    -334.383
  H      376.016     127.345    -333.413
  H      377.502     126.946    -331.364
  H      378.256     126.561    -332.934
  P      377.285     127.962    -336.648
  C      376.353     126.417    -338.556
  O      376.118     127.472    -337.632
  O      378.321     126.961    -336.273
  O      378.008     129.138    -337.485
  H      378.813     128.741    -337.879
  H      375.463     126.233    -339.121
  H      376.626     125.530    -338.023
  H      377.146     126.693    -339.219

 6  7  8  9  10  11  12  13  14  15  16  26  31  32  33  34  35 0
 6-311+G(2d,p)
 ****
 36  37 0
 6-311+G(2d,p)
 ****
 1  2  3  4  5  17  18  19  20  21  22  23  24  25 0
 3-21G
 ****
 27  28  29  30  38  39  40  41  42  43  44  45 0
 3-21G
 ****


