%nproc=1
%NoSave
%Mem=1900MB
#P OB98/GEN NMR

erre ene a

0 1
  C     -147.114    -151.239      41.101
  O     -147.409    -150.070      40.367
  H     -146.076    -151.519      40.908
  H     -147.764    -152.055      40.774
  H     -147.238    -151.076      42.173
  P     -148.747    -149.262      40.709
  C     -147.807    -147.796      42.614
  O     -148.675    -148.863      42.261
  C     -148.569    -146.704      43.375
  O     -149.158    -147.285      44.567
  C     -147.630    -145.586      43.841
  O     -148.302    -144.335      43.959
  C     -147.213    -146.055      45.227
  O     -146.767    -144.991      46.066
  C     -148.490    -146.733      45.714
  N     -148.829    -148.157      50.596
  C     -149.011    -146.908      50.037
  N     -149.331    -145.907      50.891
  N     -148.873    -146.657      48.761
  C     -148.484    -147.735      48.038
  C     -148.248    -149.016      48.483
  C     -148.439    -149.288      49.892
  O     -148.268    -150.369      50.443
  N     -147.858    -149.838      47.456
  C     -147.852    -149.057      46.395
  N     -148.249    -147.777      46.692
  O     -149.883    -150.392      40.696
  O     -149.080    -148.137      39.776
  H     -147.529    -144.402      46.220
  H     -150.758    -149.991      40.545
  H     -148.977    -148.301      51.579
  H     -147.586    -149.370      45.392
  H     -149.166    -146.002      46.174
  H     -146.377    -146.750      45.115
  H     -149.252    -146.018      51.891
  H     -146.766    -145.465      43.193
  H     -149.161    -144.955      50.557
  H     -149.396    -146.328      42.764
  H     -147.394    -147.399      41.684
  H     -146.971    -148.168      43.208
  P     -147.663    -143.052      43.244
  C     -149.572    -142.669      41.452
  O     -148.219    -142.929      41.753
  O     -146.129    -143.451      43.049
  O     -147.817    -141.777      44.013
  H     -145.555    -142.867      43.579
  H     -149.700    -142.632      40.390
  H     -149.858    -141.731      41.879
  H     -150.184    -143.447      41.858

 6  7  8  9  10  11  12  13  14  15  26  29  33  34 0
 6-311+G(2d,p)
 ****
 36  38  39  40  41 0
 6-311+G(2d,p)
 ****
 1  2  3  4  5  16  17  18  19  20  21  22  23  24  25 0
 3-21G
 ****
 27  28  30  31  32  35  37  42  43  44  45  46  47 0
 3-21G
 ****
 48  49 0
 3-21G
 ****


