%nproc=1
%NoSave
%Mem=1900MB
#P OB98/GEN NMR

erre ene a

0 1
  C     -174.597     275.079    -113.831
  O     -174.019     274.249    -112.823
  P     -173.496     272.805    -113.292
  C     -171.376     272.684    -111.804
  O     -172.661     272.146    -112.085
  C     -171.407     273.645    -110.608
  O     -171.967     272.994    -109.433
  C     -170.026     274.179    -110.216
  O     -170.203     275.512    -109.736
  C     -169.636     273.289    -109.048
  O     -168.631     273.902    -108.247
  C     -171.001     273.101    -108.366
  N     -171.046     271.941    -107.478
  C     -170.680     272.143    -106.147
  O     -170.275     273.249    -105.777
  N     -170.744     271.088    -105.271
  C     -171.092     269.918    -105.705
  N     -171.131     268.911    -104.791
  C     -171.427     269.641    -107.115
  C     -171.388     270.689    -107.934
  O     -172.381     273.150    -114.385
  O     -174.571     271.936    -113.863
  H     -168.950     274.792    -107.982
  H     -172.534     272.627    -115.193
  H     -171.692     268.642    -107.433
  H     -171.620     270.590    -108.986
  H     -171.258     273.987    -107.770
  H     -169.255     272.328    -109.416
  H     -169.305     274.169    -111.036
  H     -172.067     274.484    -110.863
  H     -170.903     269.141    -103.831
  H     -170.994     273.217    -112.678
  H     -171.385     267.958    -105.015
  H     -170.680     271.858    -111.624
  P     -169.235     276.656    -110.306
  C     -170.799     278.686    -110.500
  O     -169.828     278.028    -109.711
  O     -169.712     276.746    -111.838
  O     -167.760     276.462    -110.206
  H     -169.140     277.368    -112.321
  H     -171.204     279.525    -109.927
  H     -171.618     278.002    -110.750
  H     -170.338     279.075    -111.413
  H     -174.904     276.007    -113.396
  H     -175.446     274.586    -114.255
  H     -173.874     275.266    -114.597

 3  4  5  6  7  8  9  10  11  12  13  21  23  27  28  29  30  32 0
 6-311+G(2d,p)
 ****
 34  35 0
 6-311+G(2d,p)
 ****
 1  2  14  15  16  17  18  19  20  22  24  25  26 0
 3-21G
 ****
 31  33  36  37  38  39  40  41  42  43  44  45  46 0
 3-21G
 ****


