%nproc=1
%NoSave
%Mem=1900MB
#P OB98/GEN NMR

erre ene a

0 1
  C      564.645     710.054    -151.645
  O      563.425     709.345    -151.757
  H      564.909     710.450    -152.627
  H      565.436     709.383    -151.313
  H      564.540     710.894    -150.946
  P      562.754     708.740    -150.430
  C      560.554     709.985    -150.915
  O      561.166     708.724    -150.685
  C      559.239     709.820    -151.670
  O      559.533     709.487    -153.052
  C      558.340     708.720    -151.105
  O      556.979     709.147    -151.199
  C      558.573     707.548    -152.046
  O      557.457     706.656    -152.091
  C      558.840     708.259    -153.371
  N      558.642     705.395    -157.527
  C      557.658     706.159    -156.923
  N      556.435     706.142    -157.496
  N      557.862     706.877    -155.848
  C      559.134     706.813    -155.390
  C      560.195     706.100    -155.896
  C      559.955     705.287    -157.076
  O      560.778     704.571    -157.651
  N      561.323     706.260    -155.135
  C      560.946     707.090    -154.168
  N      559.628     707.432    -154.278
  O      563.166     709.393    -149.146
  O      563.143     707.192    -150.469
  H      557.674     705.959    -152.750
  H      563.899     707.012    -149.872
  H      558.432     704.852    -158.351
  H      561.582     707.445    -153.368
  H      557.909     708.521    -153.899
  H      559.455     706.985    -151.717
  H      556.216     705.624    -158.330
  H      558.575     708.466    -150.064
  H      555.705     706.715    -157.086
  H      558.722     710.787    -151.679
  H      561.245     710.604    -151.505
  H      560.376     710.488    -149.949
  P      555.851     708.311    -150.425
  C      554.859     709.942    -148.689
  O      554.701     709.331    -149.963
  O      556.342     707.395    -149.351
  O      555.136     707.495    -151.607
  H      554.803     706.651    -151.252
  H      554.032     710.594    -148.501
  H      555.768     710.506    -148.674
  H      554.896     709.186    -147.933

 6  7  8  9  10  11  12  13  14  15  26  29  33  34 0
 6-311+G(2d,p)
 ****
 36  38  39  40  41 0
 6-311+G(2d,p)
 ****
 1  2  3  4  5  16  17  18  19  20  21  22  23  24  25 0
 3-21G
 ****
 27  28  30  31  32  35  37  42  43  44  45  46  47 0
 3-21G
 ****
 48  49 0
 3-21G
 ****


