%nproc=1
%NoSave
%Mem=1900MB
#P OB98/GEN NMR

erre ene a

0 1
  C      -96.929     -84.996      -0.289
  O      -96.717     -84.019       0.710
  H      -96.026     -85.601      -0.386
  H      -97.137     -84.515      -1.249
  H      -97.763     -85.647      -0.012
  P      -97.942     -83.033       1.023
  C      -96.366     -81.188       0.090
  O      -97.688     -81.706       0.159
  C      -96.015     -80.868      -1.359
  O      -96.366     -81.987      -2.206
  C      -96.773     -79.676      -1.928
  O      -96.229     -78.439      -1.508
  C      -96.632     -79.925      -3.421
  O      -95.379     -79.439      -3.918
  C      -96.684     -81.454      -3.512
  N      -99.790     -81.974      -7.529
  C      -98.515     -81.539      -7.425
  N      -97.752     -81.442      -6.316
  C      -98.424     -81.882      -5.239
  C      -99.724     -82.357      -5.192
  C     -100.421     -82.398      -6.410
  N     -101.727     -82.816      -6.514
  N     -100.078     -82.676      -3.897
  C      -99.009     -82.408      -3.175
  N      -97.984     -81.930      -3.943
  O      -97.656     -82.568       2.528
  O      -99.296     -83.639       0.877
  H      -95.422     -79.516      -4.891
  H      -98.216     -83.082       3.140
  H      -98.051     -81.216      -8.352
  H      -98.931     -82.534      -2.102
  H      -95.943     -81.853      -4.215
  H      -97.425     -79.424      -3.976
  H      -97.835     -79.741      -1.659
  H      -94.931     -80.711      -1.432
  H      -95.663     -81.934       0.475
  H      -96.306     -80.288       0.710
  H     -102.186     -82.755      -7.408
  H     -102.243     -83.026      -5.669
  P      -97.027     -77.616      -0.388
  C      -97.178     -75.659      -2.105
  O      -97.844     -76.460      -1.138
  O      -95.879     -76.823       0.396
  O      -97.848     -78.456       0.531
  H      -96.107     -76.760       1.343
  H      -97.863     -74.941      -2.506
  H      -96.812     -76.283      -2.894
  H      -96.358     -75.150      -1.643

 6  7  8  9  10  11  12  13  14  15  25  28  32  33  34  35 0
 6-311+G(2d,p)
 ****
 36  37  40 0
 6-311+G(2d,p)
 ****
 1  2  3  4  5  16  17  18  19  20  21  22  23  24 0
 3-21G
 ****
 26  27  29  30  31  38  39 41  42  43  44  45  46  47  48 0
 3-21G
 ****


