%nproc=1
%NoSave
%Mem=1900MB
#P OB98/GEN NMR

erre ene a

0 1
  C      597.932     684.838     748.673
  O      597.415     683.559     749.023
  P      597.470     683.134     750.575
  C      600.030     682.712     750.727
  O      598.729     682.141     750.707
  C      601.089     681.621     750.831
  O      601.112     681.080     752.159
  C      600.854     680.421     749.909
  O      601.285     680.673     748.583
  C      601.725     679.369     750.584
  O      603.097     679.539     750.171
  C      601.564     679.711     752.082
  N      600.981     675.596     754.973
  C      602.131     676.158     754.470
  N      603.296     675.565     754.802
  N      602.142     677.220     753.702
  C      600.909     677.738     753.479
  C      599.695     677.254     753.917
  C      599.691     676.054     754.730
  O      598.696     675.478     755.148
  N      598.673     678.062     753.505
  C      599.248     679.039     752.844
  N      600.613     678.863     752.772
  O      596.207     682.168     750.731
  O      597.423     684.266     751.545
  H      603.104     679.490     749.197
  H      595.906     682.160     751.665
  H      601.027     674.792     755.578
  H      598.744     679.884     752.403
  H      602.530     679.659     752.602
  H      601.438     678.341     750.328
  H      603.357     674.834     755.487
  H      599.811     680.100     749.944
  H      604.154     675.997     754.477
  H      602.068     682.073     750.617
  H      600.120     683.377     751.589
  H      600.172     683.294     749.813
  P      600.247     680.305     747.415
  C      601.131     677.867     747.317
  O      600.915     679.080     746.630
  O      600.382     681.538     746.405
  O      598.835     680.120     747.883
  H      599.565     681.656     745.892
  H      600.316     677.657     748.025
  H      602.078     677.915     747.855
  H      601.170     677.054     746.591
  H      597.832     684.987     747.618
  H      598.966     684.891     748.944
  H      597.387     685.598     749.194

 3  4  5  6  7  8  9  10  11  12  23  26  30  31  33  0
 6-311+G(2d,p)
 ****
 35  36  37  38 0
 6-311+G(2d,p)
 ****
 1  2  13  14  15  16  17  18  19  20  21  22  24  25  27  28  29 0
 3-21G
 ****
 32  34  39  40  41  42  43  44  45  46  47  48  49 0
 3-21G
 ****


