%nproc=1
%NoSave
%Mem=1900MB
#P OB98/GEN NMR

erre ene a

0 1
  C      280.475    -625.745    -477.358
  O      279.267    -626.021    -478.041
  H      280.400    -626.137    -476.341
  H      280.655    -624.662    -477.308
  H      281.312    -626.236    -477.866
  P      279.161    -625.490    -479.551
  C      277.172    -624.020    -478.821
  O      277.627    -625.034    -479.708
  C      275.686    -624.196    -478.519
  O      274.934    -623.957    -479.738
  C      275.321    -625.595    -478.019
  O      274.308    -625.487    -477.022
  C      274.751    -626.277    -479.252
  O      273.843    -627.334    -478.923
  C      274.105    -625.103    -479.984
  N      271.658    -627.864    -483.519
  C      271.465    -627.723    -482.195
  N      272.160    -626.950    -481.323
  C      273.107    -626.237    -481.970
  C      273.422    -626.277    -483.309
  C      272.654    -627.148    -484.104
  N      272.856    -627.319    -485.455
  N      274.489    -625.438    -483.588
  C      274.801    -624.894    -482.422
  N      274.000    -625.356    -481.415
  O      279.659    -626.425    -480.603
  O      279.930    -624.087    -479.461
  H      273.368    -627.596    -479.732
  H      279.672    -623.589    -478.658
  H      270.662    -628.311    -481.760
  H      275.594    -624.170    -482.259
  H      273.091    -624.880    -479.620
  H      275.571    -626.701    -479.854
  H      276.181    -626.131    -477.620
  H      275.370    -623.421    -477.807
  H      277.347    -623.025    -479.258
  H      272.255    -627.953    -485.959
  H      273.582    -626.778    -485.926
  H      277.756    -624.091    -477.896
  P      274.733    -624.990    -475.556
  C      274.253    -627.378    -474.679
  O      274.069    -625.967    -474.467
  O      274.568    -623.530    -475.294
  O      276.278    -625.405    -475.487
  H      276.777    -624.714    -474.995
  H      273.770    -627.922    -473.895
  H      275.299    -627.605    -474.679
  H      273.828    -627.656    -475.621

 6  7  8  9  10  11  12  13  14  15  25  28  32  33  34  35 0
 6-311+G(2d,p)
 ****
 36  39  40 0
 6-311+G(2d,p)
 ****
 1  2  3  4  5  16  17  18  19  20  21  22  23  24 0
 3-21G
 ****
 26  27  29  30  31  37  38  41  42  43  44  45  46  47 0
 3-21G
 ****
 48 0
 3-21G
 ****


