%nproc=1
%NoSave
%Mem=1900MB
#P OB98/GEN NMR

erre ene a

0 1
  C      -27.765       4.993      27.647
  O      -28.447       4.384      26.546
  P      -30.050       4.353      26.457
  C      -30.093       3.606      24.001
  O      -30.532       3.317      25.324
  C      -28.642       3.181      23.738
  O      -28.438       1.784      24.088
  C      -28.173       3.342      22.284
  O      -26.773       3.630      22.351
  C      -28.405       1.953      21.718
  O      -27.677       1.696      20.527
  C      -27.986       1.092      22.905
  N      -27.750      -3.462      20.574
  C      -26.930      -2.388      20.533
  N      -27.039      -1.227      21.210
  C      -28.106      -1.247      22.030
  C      -29.024      -2.272      22.184
  C      -28.822      -3.421      21.398
  N      -29.680      -4.498      21.400
  N      -30.005      -1.918      23.093
  C      -29.683      -0.696      23.468
  N      -28.541      -0.247      22.856
  O      -30.683       5.704      26.351
  O      -30.506       3.645      27.820
  H      -26.726       1.759      20.730
  H      -31.243       4.151      28.212
  H      -26.078      -2.470      19.863
  H      -30.249      -0.086      24.160
  H      -26.895       1.003      22.968
  H      -29.471       1.831      21.485
  H      -28.708       4.122      21.737
  H      -28.002       3.766      24.409
  H      -30.190       4.685      23.830
  H      -29.503      -5.234      20.734
  H      -30.549      -4.435      21.908
  H      -30.759       3.097      23.292
  P      -26.200       5.095      22.047
  C      -24.597       5.242      24.035
  O      -24.710       5.133      22.628
  O      -27.076       6.217      22.495
  O      -25.979       5.120      20.459
  H      -25.924       6.045      20.155
  H      -24.805       6.271      24.343
  H      -23.578       4.979      24.333
  H      -25.297       4.565      24.537
  H      -26.708       4.902      27.506
  H      -28.047       4.504      28.556
  H      -28.029       6.028      27.702

 3  4  5  6  7  8  9  10  11  12  22  25  29  30  31  32 0
 6-311+G(2d,p)
 ****
 33  36  37 0
 6-311+G(2d,p)
 ****
 1  2  13  14  15  16  17  18  19  20  21  23  24  26 0
 3-21G
 ****
 27  28  34  35  38  39  40  41  42  43  44  45  46  47  48 0
 3-21G
 ****


