%nproc=1
%NoSave
%Mem=1900MB
#P OB98/GEN NMR

erre ene a

0 1
  C      111.124     383.672     237.844
  O      110.210     383.318     238.892
  P      109.837     384.472     239.940
  C      107.404     385.137     239.308
  O      108.253     384.423     240.199
  C      105.971     384.628     239.426
  O      105.781     383.382     238.715
  C      105.548     384.333     240.865
  O      105.288     385.539     241.576
  C      104.321     383.460     240.625
  O      103.177     384.271     240.303
  C      104.741     382.641     239.397
  N      103.644     378.249     241.791
  C      102.943     379.395     241.633
  N      103.306     380.523     240.987
  C      104.530     380.384     240.447
  C      105.363     379.278     240.516
  C      104.871     378.167     241.230
  N      105.598     377.002     241.398
  N      106.545     379.515     239.841
  C      106.437     380.753     239.392
  N      105.232     381.314     239.726
  O      110.044     385.821     239.099
  O      110.684     384.459     241.173
  H      103.375     384.732     239.459
  H      110.840     386.289     239.409
  H      101.961     379.408     242.101
  H      107.198     381.274     238.828
  H      103.917     382.513     238.688
  H      104.053     382.852     241.498
  H      106.327     383.757     241.376
  H      105.299     385.383     238.987
  H      107.754     385.027     238.279
  H      105.212     376.286     241.990
  H      106.549     376.969     241.056
  H      107.466     386.206     239.546
  P      105.773     385.613     243.104
  C      106.706     388.001     243.234
  O      105.590     387.170     243.477
  O      107.354     385.470     242.956
  O      105.107     384.644     244.023
  H      107.702     386.033     242.238
  H      106.441     389.035     243.497
  H      106.982     387.966     242.175
  H      107.555     387.684     243.853
  H      111.292     382.823     237.215
  H      112.052     383.988     238.272
  H      110.709     384.470     237.263

 3  4  5  6  7  8  9  10  11  12  22  25  29  30  31  32 0
 6-311+G(2d,p)
 ****
 33  36  37 0
 6-311+G(2d,p)
 ****
 1  2  13  14  15  16  17  18  19  20  21  23  24  26 0
 3-21G
 ****
 27  28  34  35  38  39  40  41  42  43  44  45  46  47  48 0
 3-21G
 ****


