%nproc=1
%NoSave
%Mem=1900MB
#P OB98/GEN NMR

erre ene a

0 1
  C     -105.468     138.467     137.274
  O     -106.012     137.180     137.487
  H     -105.970     138.920     136.414
  H     -104.399     138.392     137.059
  H     -105.628     139.098     138.151
  P     -105.542     136.410     138.820
  C     -103.022     136.446     138.080
  O     -104.004     136.819     139.031
  C     -101.657     136.276     138.753
  O     -101.318     137.511     139.436
  C     -101.615     135.147     139.787
  O     -100.335     134.514     139.715
  C     -101.765     135.871     141.114
  O     -101.225     135.112     142.198
  C     -101.057     137.203     140.821
  N     -101.507     138.279     141.703
  C     -101.120     138.196     143.046
  O     -100.456     137.237     143.443
  N     -101.536     139.169     143.918
  C     -102.330     140.113     143.499
  N     -102.722     141.039     144.418
  C     -102.801     140.213     142.103
  C     -102.348     139.279     141.268
  O     -105.468     134.894     138.310
  O     -106.432     136.626     139.997
  H     -101.498     135.549     143.036
  H     -105.081     134.799     137.422
  H     -103.474     141.009     141.807
  H     -102.641     139.282     140.219
  H      -99.970     137.094     140.937
  H     -102.826     136.047     141.324
  H     -102.398     134.402     139.647
  H     -100.900     136.130     137.973
  H     -102.391     140.926     145.370
  H     -102.948     137.204     137.292
  H     -103.376     141.783     144.217
  H     -103.336     135.503     137.619
  P     -100.239     132.992     139.222
  C      -99.312     132.066     141.449
  O     -100.368     132.022     140.496
  O      -99.100     132.678     138.307
  O     -101.646     132.767     138.479
  H     -101.480     132.212     137.688
  H      -99.518     131.378     142.242
  H      -99.232     133.056     141.847
  H      -98.392     131.797     140.974

 6  7  8  9  10  11  12  13  14  15  16  26  30  31  32  33  35 0
 6-311+G(2d,p)
 ****
 37  38 0
 6-311+G(2d,p)
 ****
 1  2  3  4  5  17  18  19  20  21  22  23  24  25 0
 3-21G
 ****
 27  28  29  34  36  39  40  41  42  43  44  45  46 0
 3-21G
 ****


