%nproc=1
%NoSave
%Mem=1900MB
#P OB98/GEN NMR

erre ene a

0 1
  C     -175.208     566.205    -192.460
  O     -175.357     564.813    -192.290
  H     -175.635     566.711    -191.589
  H     -175.750     566.527    -193.353
  H     -174.156     566.488    -192.548
  P     -174.454     563.829    -193.170
  C     -172.312     563.916    -191.735
  O     -172.921     564.265    -192.971
  C     -170.787     564.020    -191.801
  O     -170.275     563.182    -192.862
  C     -170.313     565.438    -192.116
  O     -170.218     566.307    -191.002
  C     -168.941     565.181    -192.730
  O     -167.936     565.069    -191.707
  C     -169.135     563.840    -193.441
  N     -167.435     565.856    -197.817
  C     -166.961     566.043    -196.533
  N     -165.947     566.924    -196.393
  N     -167.457     565.437    -195.487
  C     -168.531     564.660    -195.768
  C     -169.097     564.407    -196.999
  C     -168.507     565.043    -198.159
  O     -168.890     564.917    -199.317
  N     -170.174     563.562    -196.893
  C     -170.303     563.363    -195.596
  N     -169.313     563.988    -194.875
  O     -174.750     564.292    -194.678
  O     -174.734     562.368    -192.990
  H     -167.065     565.214    -192.119
  H     -174.604     563.548    -195.288
  H     -166.996     566.329    -198.590
  H     -171.076     562.759    -195.132
  H     -168.273     563.178    -193.291
  H     -168.631     565.998    -193.388
  H     -165.613     567.500    -197.149
  H     -170.951     565.892    -192.882
  H     -165.756     567.287    -195.455
  H     -170.358     563.651    -190.861
  H     -172.606     562.889    -191.518
  H     -172.702     564.542    -190.930
  P     -170.085     567.888    -191.226
  C     -172.553     568.589    -190.788
  O     -171.515     568.409    -191.727
  O     -169.163     567.983    -192.532
  O     -169.504     568.636    -190.078
  H     -168.234     568.124    -192.277
  H     -173.431     568.938    -191.290
  H     -172.251     569.308    -190.056
  H     -172.764     567.657    -190.307

 6  7  8  9  10  11  12  13  14  15  26  29  33  34 0
 6-311+G(2d,p)
 ****
 36  38  39  40  41 0
 6-311+G(2d,p)
 ****
 1  2  3  4  5  16  17  18  19  20  21  22  23  24  25 0
 3-21G
 ****
 27  28  30  31  32  35  37  42  43  44  45  46  47 0
 3-21G
 ****
 48  49 0
 3-21G
 ****


