%nproc=1
%NoSave
%Mem=1900MB
#P OB98/GEN NMR

erre ene a

0 1
  C     -269.079     109.984      68.508
  O     -269.229     110.838      69.623
  H     -268.191     110.290      67.951
  H     -269.951     110.056      67.851
  H     -268.948     108.952      68.843
  P     -270.516     110.590      70.549
  C     -270.339     112.905      71.668
  O     -270.254     111.497      71.849
  C     -269.466     113.628      72.694
  O     -269.969     113.327      74.022
  C     -267.994     113.207      72.652
  O     -267.175     114.342      72.939
  C     -267.886     112.212      73.795
  O     -266.553     112.082      74.277
  C     -268.876     112.805      74.796
  N     -269.184     111.653      79.745
  C     -268.825     112.783      79.100
  N     -268.795     113.011      77.770
  C     -269.244     111.937      77.094
  C     -269.643     110.720      77.611
  C     -269.593     110.590      79.011
  N     -269.923     109.433      79.677
  N     -269.989     109.854      76.592
  C     -269.813     110.543      75.481
  N     -269.342     111.801      75.735
  O     -270.845     109.163      70.827
  O     -271.646     111.417      69.775
  H     -266.300     112.919      74.721
  H     -271.328     112.303      69.517
  H     -268.514     113.610      79.733
  H     -269.992     110.174      74.476
  H     -268.442     113.624      75.384
  H     -268.220     111.224      73.460
  H     -267.700     112.769      71.698
  H     -269.575     114.710      72.550
  H     -271.378     113.236      71.773
  H     -269.860     109.429      80.682
  H     -270.236     108.631      79.150
  H     -270.002     113.135      70.651
  P     -266.204     114.909      71.797
  C     -264.106     113.639      72.587
  O     -264.697     114.910      72.353
  O     -266.638     116.183      71.154
  O     -266.174     113.711      70.731
  H     -266.223     114.085      69.829
  H     -263.109     113.771      72.953
  H     -264.079     113.084      71.672
  H     -264.684     113.105      73.312

 6  7  8  9  10  11  12  13  14  15  25  28  32  33  34  35 0
 6-311+G(2d,p)
 ****
 36  39  40 0
 6-311+G(2d,p)
 ****
 1  2  3  4  5  16  17  18  19  20  21  22  23  24 0
 3-21G
 ****
 26  27  29  30  31  37  38  41  42  43  44  45  46  47 0
 3-21G
 ****
 48 0
 3-21G
 ****


