%nproc=1
%NoSave
%Mem=1900MB
#P OB98/GEN NMR

erre ene a

0 1
  C       89.166    -249.441       1.624
  O       88.237    -248.486       2.087
  H       89.356    -249.257       0.564
  H       88.752    -250.447       1.737
  H       90.112    -249.369       2.165
  P       88.024    -248.318       3.665
  C       87.643    -245.795       3.275
  O       87.161    -246.984       3.885
  C       86.669    -244.633       3.506
  O       85.538    -244.781       2.609
  C       86.110    -244.643       4.932
  O       85.752    -243.337       5.379
  C       84.848    -245.479       4.793
  O       83.892    -245.228       5.822
  C       84.374    -245.080       3.397
  N       79.712    -246.837       2.313
  C       80.087    -245.840       3.193
  N       79.086    -245.228       3.869
  N       81.329    -245.490       3.405
  C       82.226    -246.234       2.714
  C       81.979    -247.261       1.833
  C       80.598    -247.616       1.580
  O       80.212    -248.505       0.829
  N       83.145    -247.784       1.333
  C       84.096    -247.079       1.913
  N       83.588    -246.109       2.742
  O       89.472    -247.884       4.196
  O       87.516    -249.532       4.382
  H       84.325    -245.415       6.675
  H       89.560    -248.087       5.145
  H       78.741    -247.046       2.164
  H       85.158    -247.219       1.757
  H       83.758    -244.174       3.441
  H       85.127    -246.534       4.863
  H       78.148    -245.600       3.879
  H       86.796    -245.087       5.650
  H       79.355    -244.733       4.723
  H       87.151    -243.682       3.253
  H       87.747    -246.003       2.208
  H       88.635    -245.547       3.655
  P       86.887    -242.414       6.032
  C       85.939    -239.942       6.018
  O       86.218    -241.136       6.716
  O       87.660    -241.812       4.771
  O       87.810    -243.137       6.962
  H       88.581    -242.131       4.751
  H       85.494    -239.234       6.686
  H       85.263    -240.148       5.214
  H       86.848    -239.538       5.625

 6  7  8  9  10  11  12  13  14  15  26  29  33  34 0
 6-311+G(2d,p)
 ****
 36  38  39  40  41 0
 6-311+G(2d,p)
 ****
 1  2  3  4  5  16  17  18  19  20  21  22  23  24  25 0
 3-21G
 ****
 27  28  30  31  32  35  37  42  43  44  45  46  47 0
 3-21G
 ****
 48  49 0
 3-21G
 ****


