%nproc=1
%NoSave
%Mem=1900MB
#P OB98/GEN NMR

erre ene a

0 1
  C      415.518    -561.844    1082.704
  O      415.644    -560.483    1083.081
  H      416.502    -562.253    1082.445
  H      415.100    -562.411    1083.540
  H      414.846    -561.929    1081.841
  P      416.268    -559.482    1082.012
  C      414.089    -558.992    1080.694
  O      415.376    -559.586    1080.685
  C      413.948    -558.006    1079.534
  O      414.181    -558.745    1078.300
  C      412.568    -557.322    1079.429
  O      412.720    -555.904    1079.477
  C      412.050    -557.718    1078.054
  O      411.392    -556.643    1077.375
  C      413.305    -558.164    1077.312
  N      412.034    -558.624    1072.409
  C      412.647    -557.626    1073.060
  N      413.056    -557.601    1074.353
  C      412.790    -558.778    1074.958
  C      412.200    -559.896    1074.387
  C      411.778    -559.775    1073.057
  N      411.106    -560.781    1072.390
  N      412.090    -560.926    1075.323
  C      412.566    -560.417    1076.431
  N      412.997    -559.118    1076.265
  O      417.643    -560.189    1081.591
  O      416.500    -558.090    1082.500
  H      411.289    -556.932    1076.443
  H      418.375    -559.532    1081.625
  H      412.832    -556.721    1072.500
  H      412.592    -560.910    1077.403
  H      413.833    -557.311    1076.859
  H      411.352    -558.555    1078.162
  H      411.870    -557.650    1080.225
  H      414.743    -557.265    1079.610
  H      413.958    -558.443    1081.639
  H      410.760    -560.583    1071.461
  H      410.822    -561.602    1072.898
  H      413.323    -559.780    1080.646
  P      412.603    -555.214    1080.930
  C      415.135    -554.725    1081.316
  O      413.979    -555.481    1081.689
  O      411.568    -556.170    1081.702
  O      412.151    -553.800    1080.894
  H      411.102    -555.662    1082.374
  H      415.967    -555.025    1081.918
  H      414.944    -553.683    1081.466
  H      415.359    -554.901    1080.285

 6  7  8  9  10  11  12  13  14  15  25  28  32  33  34  35 0
 6-311+G(2d,p)
 ****
 36  39  40 0
 6-311+G(2d,p)
 ****
 1  2  3  4  5  16  17  18  19  20  21  22  23  24 0
 3-21G
 ****
 26  27  29  30  31  37  38  41  42  43  44  45  46  47  48 0
 3-21G
 ****


