%nproc=1
%NoSave
%Mem=1900MB
#P OB98/GEN NMR

erre ene a

0 1
  C      286.075    -302.159       2.742
  O      285.617    -301.708       1.484
  P      284.054    -301.728       1.127
  C      282.235    -303.551       1.002
  O      283.608    -303.266       1.261
  C      282.091    -304.865       0.233
  O      282.798    -305.929       0.903
  C      280.649    -305.346       0.092
  O      279.977    -304.610      -0.908
  C      280.868    -306.819      -0.237
  O      281.148    -307.003      -1.636
  C      282.112    -307.164       0.615
  N      281.767    -307.888       1.834
  C      281.345    -309.209       1.657
  O      281.251    -309.690       0.523
  N      280.992    -309.944       2.765
  C      281.036    -309.393       3.938
  N      280.661    -310.168       4.998
  C      281.444    -307.992       4.161
  C      281.790    -307.305       3.078
  O      283.682    -301.062      -0.156
  O      283.379    -301.046       2.411
  H      280.381    -306.624      -2.117
  H      283.529    -300.070       2.423
  H      281.451    -307.577       5.160
  H      282.098    -306.269       3.151
  H      282.814    -307.779       0.032
  H      279.990    -307.426      -0.001
  H      280.138    -305.263       1.055
  H      282.545    -304.728      -0.761
  H      280.360    -311.112       4.795
  H      281.818    -302.734       0.405
  H      280.621    -309.829       5.947
  H      281.685    -303.596       1.953
  P      278.386    -304.758      -1.073
  C      276.711    -306.623      -1.624
  O      278.078    -306.259      -1.525
  O      277.724    -303.693      -1.886
  O      277.854    -304.721       0.441
  H      277.076    -304.143       0.490
  H      276.631    -307.522      -2.241
  H      276.128    -305.816      -2.086
  H      276.316    -306.836      -0.627
  H      287.140    -302.067       2.788
  H      285.799    -303.184       2.875
  H      285.632    -301.567       3.516

 3  4  5  6  7  8  9  10  11  12  13  23  27  28  29  30  32 0
 6-311+G(2d,p)
 ****
 34  35 0
 6-311+G(2d,p)
 ****
 1  2  14  15  16  17  18  19  20  21  22  24  25  26 0
 3-21G
 ****
 31  33  36  37  38  39  40  41  42  43  44  45  46 0
 3-21G
 ****


