%nproc=1
%NoSave
%Mem=1900MB
#P OB98/GEN NMR

erre ene a

0 1
  C      124.251     398.312    1113.759
  O      124.432     397.766    1112.466
  H      125.218     398.661    1114.128
  H      123.863     397.555    1114.438
  H      123.558     399.163    1113.708
  P      123.153     397.098    1111.768
  C      122.277     395.565    1113.683
  O      122.965     395.654    1112.437
  C      121.340     394.366    1113.661
  O      120.392     394.506    1112.582
  C      122.028     393.031    1113.412
  O      122.664     392.524    1114.573
  C      120.865     392.174    1112.960
  O      120.146     391.627    1114.082
  C      119.987     393.178    1112.182
  N      120.103     392.981    1110.740
  C      118.912     392.935    1110.028
  O      117.806     393.068    1110.565
  N      119.009     392.718    1108.686
  C      120.160     392.483    1108.001
  O      120.185     392.230    1106.800
  C      121.403     392.514    1108.798
  C      121.324     392.763    1110.111
  O      123.669     396.773    1110.288
  O      121.929     397.949    1111.761
  H      123.270     397.405    1109.660
  H      119.529     390.967    1113.709
  H      118.148     392.689    1108.160
  H      122.341     392.323    1108.283
  H      122.219     392.773    1110.722
  H      118.933     393.063    1112.456
  H      121.200     391.336    1112.352
  H      122.750     393.125    1112.584
  H      120.783     394.340    1114.611
  H      121.691     396.475    1113.845
  H      123.013     395.471    1114.489
  P      124.189     392.022    1114.438
  C      123.776     389.428    1114.219
  O      124.215     390.524    1115.011
  O      124.890     392.912    1115.570
  O      124.740     392.211    1113.070
  H      124.260     393.144    1116.284
  H      123.873     388.522    1114.779
  H      124.374     389.365    1113.334
  H      122.751     389.572    1113.948

 6  7  8  9  10  11  12  13  14  15  16  27  31  32  33  34  35 0
 6-311+G(2d,p)
 ****
 36  37 0
 6-311+G(2d,p)
 ****
 1  2  3  4  5  17  18  19  20  21  22  23  24  25 0
 3-21G
 ****
 26  28  29  30  38  39  40  41  42  43  44  45 0
 3-21G
 ****


