%nproc=1
%NoSave
%Mem=1900MB
#P OB98/GEN NMR

erre ene a

0 1
  C      154.433    -271.401      50.719
  O      153.137    -271.171      50.181
  P      152.938    -270.889      48.622
  C      150.450    -270.079      48.827
  O      151.781    -269.802      48.450
  C      149.630    -268.783      48.737
  O      149.999    -267.882      49.798
  C      149.859    -268.063      47.407
  O      148.860    -268.422      46.466
  C      149.813    -266.600      47.808
  O      148.452    -266.152      47.910
  C      150.476    -266.640      49.205
  N      151.948    -266.638      49.277
  C      152.636    -265.427      49.332
  O      152.083    -264.331      49.350
  N      154.010    -265.518      49.333
  C      154.730    -266.677      49.337
  O      155.934    -266.746      49.097
  C      153.958    -267.901      49.557
  C      152.626    -267.832      49.495
  O      152.262    -272.235      48.090
  O      154.184    -270.552      47.863
  H      148.044    -266.279      47.034
  H      152.928    -272.817      47.680
  H      154.512    -264.642      49.227
  H      154.499    -268.832      49.707
  H      152.033    -268.733      49.619
  H      150.124    -265.814      49.829
  H      150.288    -265.971      47.056
  H      150.864    -268.298      47.023
  H      148.565    -269.027      48.861
  H      150.421    -270.474      49.846
  H      150.023    -270.842      48.169
  P      149.240    -269.366      45.230
  C      146.843    -269.408      44.321
  O      148.177    -269.006      44.083
  O      149.380    -270.822      45.544
  O      150.618    -268.742      44.705
  H      151.375    -269.247      45.066
  H      146.199    -268.950      43.567
  H      146.515    -269.086      45.310
  H      146.766    -270.497      44.238
  H      154.357    -271.569      51.773
  H      155.051    -270.547      50.538
  H      154.866    -272.260      50.251

 3  4  5  6  7  8  9  10  11  12  13  23  28  29  30  31  32 0
 6-311+G(2d,p)
 ****
 33  34 0
 6-311+G(2d,p)
 ****
 1  2  14  15  16  17  18  19  20  21  22  24  25  26  27 0
 3-21G
 ****
 35  36  37  38  39  40  41  42  43  44  45 0
 3-21G
 ****


