%nproc=1
%NoSave
%Mem=1900MB
#P OB98/GEN NMR

erre ene a

0 1
  C      169.968    -275.262    -285.814
  O      168.976    -274.375    -286.311
  P      169.351    -273.258    -287.405
  C      168.961    -271.356    -285.724
  O      168.544    -271.938    -286.946
  C      168.284    -269.983    -285.548
  O      168.754    -269.115    -286.612
  C      166.758    -269.968    -285.643
  O      166.086    -270.288    -284.432
  C      166.521    -268.495    -285.983
  O      166.606    -267.702    -284.780
  C      167.670    -268.188    -286.929
  N      165.350    -265.941    -290.904
  C      165.582    -265.530    -289.634
  N      166.190    -266.197    -288.631
  C      166.634    -267.399    -289.051
  C      166.477    -267.960    -290.314
  C      165.798    -267.171    -291.270
  N      165.585    -267.580    -292.568
  N      167.042    -269.212    -290.359
  C      167.533    -269.405    -289.141
  N      167.314    -268.325    -288.330
  O      169.149    -273.685    -288.822
  O      170.865    -272.875    -287.078
  H      166.662    -266.760    -285.048
  H      171.266    -272.413    -287.847
  H      165.220    -264.530    -289.393
  H      168.051    -270.302    -288.819
  H      168.071    -267.171    -286.782
  H      165.517    -268.319    -286.391
  H      166.405    -270.595    -286.479
  H      168.620    -269.564    -284.585
  H      170.038    -271.221    -285.749
  H      165.216    -266.916    -293.215
  H      166.066    -268.425    -292.883
  H      168.710    -272.016    -284.880
  P      165.232    -271.653    -284.414
  C      163.187    -270.443    -283.303
  O      164.150    -271.477    -283.233
  O      166.044    -272.902    -284.347
  O      164.343    -271.538    -285.741
  H      163.679    -270.830    -285.738
  H      162.458    -270.592    -282.495
  H      162.649    -270.474    -284.265
  H      163.656    -269.474    -283.176
  H      169.527    -275.926    -285.100
  H      170.747    -274.699    -285.343
  H      170.378    -275.829    -286.624

 3  4  5  6  7  8  9  10  11  12  22  25  29  30  31  32 0
 6-311+G(2d,p)
 ****
 33  36  37 0
 6-311+G(2d,p)
 ****
 1  2  13  14  15  16  17  18  19  20  21  23  24  26 0
 3-21G
 ****
 27  28  34  35  38  39  40  41  42  43  44  45  46  47  48 0
 3-21G
 ****


