%nproc=1
%NoSave
%Mem=1900MB
#P OB98/GEN NMR

erre ene a

0 1
  C      -71.518    -137.809      64.986
  O      -71.164    -138.961      65.746
  P      -70.824    -140.318      64.966
  C      -68.201    -140.006      64.817
  O      -69.447    -140.159      64.175
  C      -67.378    -141.293      64.638
  O      -67.259    -141.621      63.237
  C      -65.961    -141.184      65.194
  O      -65.906    -141.498      66.574
  C      -65.206    -142.164      64.320
  O      -65.454    -143.515      64.751
  C      -65.863    -141.908      62.942
  N      -65.321    -140.816      62.105
  C      -64.185    -141.033      61.330
  O      -63.572    -142.097      61.286
  N      -63.762    -139.974      60.572
  C      -64.433    -138.803      60.376
  O      -64.036    -137.912      59.638
  C      -65.703    -138.681      61.100
  C      -66.075    -139.663      61.923
  O      -71.925    -140.377      63.810
  O      -70.846    -141.545      65.824
  H      -64.872    -144.096      64.231
  H      -72.514    -141.143      63.939
  H      -62.901    -140.091      60.059
  H      -66.292    -137.788      60.938
  H      -67.015    -139.581      62.465
  H      -65.836    -142.816      62.329
  H      -64.132    -142.014      64.396
  H      -65.557    -140.185      65.006
  H      -67.910    -142.115      65.135
  H      -68.333    -139.793      65.879
  H      -67.667    -139.153      64.386
  P      -65.369    -140.409      67.618
  C      -67.788    -139.996      68.365
  O      -66.599    -139.409      67.871
  O      -64.069    -139.762      67.280
  O      -65.295    -141.221      69.000
  H      -64.382    -141.558      69.157
  H      -68.483    -139.199      68.641
  H      -67.576    -140.604      69.249
  H      -68.248    -140.613      67.590
  H      -71.714    -136.991      65.648
  H      -72.394    -138.018      64.408
  H      -70.712    -137.552      64.331

 3  4  5  6  7  8  9  10  11  12  13  23  28  29  30  31  32 0
 6-311+G(2d,p)
 ****
 33  34 0
 6-311+G(2d,p)
 ****
 1  2  14  15  16  17  18  19  20  21  22  24  25  26  27 0
 3-21G
 ****
 35  36  37  38  39  40  41  42  43  44  45 0
 3-21G
 ****


