%nproc=1
%NoSave
%Mem=1900MB
#P OB98/GEN NMR

erre ene a

0 1
  C      -70.070    -150.474     212.025
  O      -70.817    -151.664     212.167
  H      -69.726    -150.160     213.013
  H      -70.691    -149.681     211.603
  H      -69.196    -150.643     211.391
  P      -71.492    -152.310     210.863
  C      -73.776    -151.119     211.014
  O      -72.545    -151.237     210.306
  C      -74.589    -149.939     210.469
  O      -75.901    -149.980     211.093
  C      -73.946    -148.584     210.793
  O      -73.776    -147.759     209.639
  C      -74.809    -148.049     211.930
  O      -74.825    -146.641     212.039
  C      -76.174    -148.686     211.663
  N      -77.009    -148.816     212.852
  C      -77.369    -147.645     213.515
  O      -77.044    -146.512     213.171
  N      -78.143    -147.814     214.636
  C      -78.573    -149.002     215.152
  O      -79.269    -149.089     216.153
  C      -78.142    -150.206     214.421
  C      -77.391    -150.059     213.325
  O      -72.035    -153.689     211.035
  O      -70.326    -152.271     209.764
  H      -75.481    -146.409     212.730
  H      -69.968    -153.173     209.638
  H      -78.421    -146.973     215.116
  H      -78.452    -151.171     214.808
  H      -77.056    -150.926     212.760
  H      -76.736    -148.103     210.929
  H      -74.412    -148.442     212.876
  H      -72.919    -148.716     211.157
  H      -74.734    -150.074     209.391
  H      -73.542    -150.963     212.074
  H      -74.350    -152.045     210.911
  P      -72.479    -147.737     208.710
  C      -71.565    -145.313     209.175
  O      -71.420    -146.719     209.341
  O      -72.731    -147.623     207.242
  O      -71.795    -149.171     208.973
  H      -71.355    -149.430     208.139
  H      -70.760    -144.811     209.669
  H      -72.495    -144.998     209.599
  H      -71.549    -145.073     208.132

 6  7  8  9  10  11  12  13  14  15  16  26  31  32  33  34  35 0
 6-311+G(2d,p)
 ****
 36  37 0
 6-311+G(2d,p)
 ****
 1  2  3  4  5  17  18  19  20  21  22  23  24  25 0
 3-21G
 ****
 27  28  29  30  38  39  40  41  42  43  44  45 0
 3-21G
 ****


