%nproc=1
%NoSave
%Mem=1900MB
#P OB98/GEN NMR

erre ene a

0 1
  C      370.954    -817.701    1317.847
  O      371.076    -816.931    1316.670
  H      371.423    -818.677    1317.687
  H      369.903    -817.857    1318.098
  H      371.464    -817.201    1318.677
  P      370.367    -815.497    1316.612
  C      372.146    -813.855    1317.525
  O      371.540    -814.421    1316.376
  C      373.681    -813.844    1317.391
  O      374.169    -815.216    1317.479
  C      374.178    -813.275    1316.040
  O      375.456    -812.671    1316.277
  C      374.316    -814.537    1315.213
  O      375.063    -814.302    1314.039
  C      374.894    -815.495    1316.263
  N      374.796    -816.887    1315.856
  C      375.850    -817.723    1316.237
  O      376.813    -817.278    1316.861
  N      375.800    -819.053    1315.872
  C      374.823    -819.487    1315.140
  N      374.844    -820.793    1314.794
  C      373.711    -818.607    1314.672
  C      373.767    -817.339    1315.069
  O      369.438    -815.187    1317.745
  O      369.598    -815.500    1315.201
  H      375.094    -815.112    1313.471
  H      368.644    -815.625    1315.351
  H      372.925    -819.023    1314.051
  H      373.004    -816.621    1314.780
  H      375.963    -815.264    1316.448
  H      373.333    -814.901    1314.880
  H      373.485    -812.540    1315.603
  H      374.106    -813.296    1318.234
  H      375.619    -821.372    1315.129
  H      371.861    -814.474    1318.384
  H      374.142    -821.243    1314.199
  H      371.788    -812.836    1317.693
  P      375.899    -811.283    1315.618
  C      375.787    -809.719    1317.679
  O      376.615    -810.368    1316.716
  O      374.797    -810.578    1314.872
  O      377.102    -811.665    1314.605
  H      377.090    -811.050    1313.848
  H      376.397    -809.145    1318.345
  H      375.244    -810.454    1318.236
  H      375.098    -809.071    1317.178

 6  7  8  9  10  11  12  13  14  15  16  26  30  31  32  33  35 0
 6-311+G(2d,p)
 ****
 37  38 0
 6-311+G(2d,p)
 ****
 1  2  3  4  5  17  18  19  20  21  22  23  24  25 0
 3-21G
 ****
 27  28  29  34  36  39  40  41  42  43  44  45  46 0
 3-21G
 ****


