%nproc=1
%NoSave
%Mem=1900MB
#P OB98/GEN NMR

erre ene a

0 1
  C      151.453    -355.793    -386.853
  O      151.283    -354.457    -387.342
  P      149.847    -354.070    -387.944
  C      150.573    -352.695    -390.044
  O      150.056    -352.681    -388.725
  C      150.616    -351.277    -390.628
  O      149.262    -350.739    -390.723
  C      151.454    -350.283    -389.812
  O      152.110    -349.420    -390.755
  C      150.408    -349.513    -389.029
  O      150.891    -348.246    -388.598
  C      149.272    -349.459    -390.055
  N      147.976    -349.163    -389.447
  C      147.695    -347.825    -389.193
  O      148.508    -346.919    -389.380
  N      146.458    -347.565    -388.663
  C      145.529    -348.498    -388.308
  O      144.433    -348.207    -387.836
  C      145.928    -349.902    -388.496
  C      147.114    -350.162    -389.047
  O      149.049    -353.661    -386.620
  O      149.232    -355.171    -388.744
  H      149.596    -353.200    -385.962
  H      151.150    -347.718    -389.384
  H      146.222    -346.600    -388.501
  H      145.241    -350.671    -388.167
  H      147.447    -351.182    -389.178
  H      149.481    -348.696    -390.818
  H      150.108    -350.087    -388.150
  H      152.201    -350.773    -389.181
  H      151.012    -351.343    -391.648
  H      149.938    -353.319    -390.687
  H      151.567    -353.152    -390.039
  P      153.560    -349.851    -391.302
  C      154.865    -348.176    -389.771
  O      154.544    -348.605    -391.072
  O      153.284    -349.806    -392.883
  O      154.042    -351.185    -390.836
  H      152.823    -348.998    -393.169
  H      155.712    -347.484    -389.830
  H      155.145    -349.017    -389.136
  H      154.012    -347.645    -389.335
  H      152.450    -355.913    -386.483
  H      151.281    -356.488    -387.648
  H      150.755    -355.975    -386.063

 3  4  5  6  7  8  9  10  11  12  13  24  28  29  30  31  32 0
 6-311+G(2d,p)
 ****
 33  34 0
 6-311+G(2d,p)
 ****
 1  2  14  15  16  17  18  19  20  21  22  23  25  26  27 0
 3-21G
 ****
 35  36  37  38  39  40  41  42  43  44  45 0
 3-21G
 ****


