%nproc=1
%NoSave
%Mem=1900MB
#P OB98/GEN NMR

erre ene a

0 1
  C      -76.662    -264.630    -205.336
  O      -76.611    -264.491    -203.928
  H      -77.296    -265.487    -205.579
  H      -75.665    -264.803    -205.750
  H      -77.103    -263.734    -205.787
  P      -75.541    -263.463    -203.313
  C      -74.619    -265.331    -201.781
  O      -75.200    -264.030    -201.845
  C      -74.806    -265.950    -200.394
  O      -73.979    -265.272    -199.431
  C      -76.229    -265.829    -199.858
  O      -77.178    -266.619    -200.542
  C      -76.031    -266.019    -198.359
  O      -76.026    -267.385    -197.954
  C      -74.626    -265.403    -198.143
  N      -74.685    -264.134    -197.429
  C      -74.811    -264.217    -196.047
  O      -74.896    -265.287    -195.439
  N      -74.887    -263.026    -195.386
  C      -74.895    -261.786    -195.956
  O      -75.009    -260.753    -195.307
  C      -74.788    -261.759    -197.425
  C      -74.686    -262.914    -198.087
  O      -75.939    -262.019    -203.325
  O      -74.202    -263.767    -204.137
  H      -76.946    -267.705    -198.023
  H      -73.551    -263.029    -204.041
  H      -74.965    -263.067    -194.379
  H      -74.795    -260.789    -197.921
  H      -74.604    -262.925    -199.171
  H      -74.002    -266.088    -197.553
  H      -76.814    -265.519    -197.784
  H      -76.556    -264.790    -199.995
  H      -74.489    -266.999    -200.436
  H      -73.545    -265.228    -201.988
  H      -75.064    -265.971    -202.550
  P      -78.664    -266.131    -200.857
  C      -79.828    -268.113    -199.636
  O      -79.623    -267.427    -200.865
  O      -78.827    -265.107    -201.936
  O      -79.066    -265.428    -199.461
  H      -79.648    -264.670    -199.672
  H      -80.482    -268.945    -199.797
  H      -80.268    -267.446    -198.924
  H      -78.889    -268.464    -199.263

 6  7  8  9  10  11  12  13  14  15  16  26  31  32  33  34  35 0
 6-311+G(2d,p)
 ****
 36  37 0
 6-311+G(2d,p)
 ****
 1  2  3  4  5  17  18  19  20  21  22  23  24  25 0
 3-21G
 ****
 27  28  29  30  38  39  40  41  42  43  44  45 0
 3-21G
 ****


