%nproc=1
%NoSave
%Mem=1900MB
#P OB98/GEN NMR

erre ene a

0 1
  C      -87.953     -30.215      66.737
  O      -88.932     -29.393      66.123
  P      -89.033     -27.837      66.473
  C      -90.230     -25.778      65.365
  O      -89.719     -27.088      65.242
  C      -90.903     -25.382      64.045
  O      -89.931     -25.358      62.979
  C      -92.004     -26.366      63.658
  O      -93.267     -25.905      64.108
  C      -91.883     -26.421      62.147
  O      -92.556     -25.298      61.547
  C      -90.353     -26.296      61.953
  N      -89.533     -27.515      62.084
  C      -88.439     -27.702      61.244
  O      -88.080     -26.889      60.398
  N      -87.770     -28.892      61.395
  C      -88.061     -29.859      62.313
  O      -87.621     -31.003      62.279
  C      -89.041     -29.485      63.336
  C      -89.737     -28.360      63.165
  O      -87.511     -27.351      66.399
  O      -89.662     -27.513      67.788
  H      -93.497     -25.368      61.786
  H      -87.121     -27.304      67.292
  H      -87.063     -29.096      60.696
  H      -89.203     -30.162      64.165
  H      -90.497     -28.081      63.891
  H      -90.117     -25.851      60.979
  H      -92.361     -27.312      61.746
  H      -91.782     -27.362      64.064
  H      -91.315     -24.370      64.148
  H      -89.420     -25.081      65.606
  H      -90.952     -25.732      66.187
  P      -94.437     -26.959      64.396
  C      -96.730     -26.704      65.512
  O      -95.393     -26.246      65.468
  O      -93.989     -28.337      64.754
  O      -95.287     -26.943      63.037
  H      -95.022     -27.697      62.471
  H      -97.219     -26.275      66.389
  H      -96.760     -27.795      65.585
  H      -97.262     -26.377      64.615
  H      -88.049     -31.217      66.373
  H      -88.094     -30.206      67.798
  H      -86.977     -29.843      66.504

 3  4  5  6  7  8  9  10  11  12  13  23  28  29  30  31  32 0
 6-311+G(2d,p)
 ****
 33  34 0
 6-311+G(2d,p)
 ****
 1  2  14  15  16  17  18  19  20  21  22  24  25  26  27 0
 3-21G
 ****
 35  36  37  38  39  40  41  42  43  44  45 0
 3-21G
 ****


