%nproc=1
%NoSave
%Mem=1900MB
#P OB98/GEN NMR

erre ene a

0 1
  C     -803.975     198.690    -458.799
  O     -804.630     198.718    -457.527
  P     -804.480     197.604    -456.404
  C     -804.921     199.409    -454.557
  O     -805.230     198.125    -455.079
  C     -805.073     199.478    -453.025
  O     -806.468     199.343    -452.650
  C     -804.340     198.289    -452.371
  O     -802.945     198.365    -452.118
  C     -805.183     197.969    -451.121
  O     -804.684     198.638    -449.961
  C     -806.570     198.496    -451.509
  N     -809.849     195.152    -449.443
  C     -808.997     196.030    -448.802
  N     -808.974     195.991    -447.452
  N     -808.221     196.866    -449.448
  C     -808.286     196.745    -450.783
  C     -809.074     195.912    -451.537
  C     -809.975     195.010    -450.828
  O     -810.766     194.223    -451.338
  N     -808.851     196.055    -452.893
  C     -807.894     196.974    -452.955
  N     -807.519     197.439    -451.719
  O     -803.103     197.023    -456.228
  O     -805.449     196.410    -456.942
  H     -804.501     199.566    -450.215
  H     -805.040     195.578    -456.653
  H     -810.455     194.533    -448.914
  H     -807.462     197.348    -453.880
  H     -806.972     199.130    -450.694
  H     -805.148     196.909    -450.918
  H     -809.468     195.287    -446.910
  H     -804.466     197.436    -453.022
  H     -808.205     196.470    -447.006
  H     -804.747     200.440    -452.647
  H     -805.592     200.130    -455.034
  H     -803.903     199.693    -454.835
  P     -801.808     197.572    -452.930
  C     -800.253     199.604    -453.243
  O     -800.388     198.323    -452.656
  O     -802.101     197.959    -454.479
  O     -801.788     196.102    -452.737
  H     -801.633     197.339    -455.059
  H     -799.192     199.891    -453.250
  H     -800.785     200.352    -452.624
  H     -800.645     199.643    -454.269
  H     -804.249     199.559    -459.361
  H     -804.271     197.812    -459.333
  H     -802.915     198.679    -458.654

 3  4  5  6  7  8  9  10  11  12  23  26  30  31 0
 6-311+G(2d,p)
 ****
 33  35  36  37  38 0
 6-311+G(2d,p)
 ****
 1  2  13  14  15  16  17  18  19  20  21  22  24  25 0
 3-21G
 ****
 27  28  29  32  34  39  40  41  42  43  44  45  46  47  48  49 0
 3-21G
 ****


