%nproc=1
%NoSave
%Mem=1900MB
#P OB98/GEN NMR

erre ene a

0 1
  C        7.329     -88.040      26.234
  O        6.077     -88.479      26.724
  H        7.246     -87.885      25.155
  H        8.101     -88.791      26.420
  H        7.609     -87.093      26.703
  P        5.955     -88.856      28.275
  C        4.899     -86.555      28.806
  O        5.955     -87.469      29.078
  C        5.027     -85.310      29.681
  O        4.025     -84.339      29.321
  C        4.835     -85.573      31.170
  O        5.978     -86.197      31.718
  C        4.557     -84.164      31.668
  O        5.773     -83.411      31.786
  C        3.679     -83.607      30.521
  N        2.247     -83.697      30.788
  C        1.733     -82.771      31.702
  O        2.476     -81.953      32.242
  N        0.390     -82.814      31.991
  C       -0.376     -83.668      31.391
  N       -1.695     -83.656      31.718
  C        0.121     -84.638      30.396
  C        1.429     -84.605      30.154
  O        6.932     -89.868      28.789
  O        4.444     -89.363      28.431
  H        6.161     -83.378      30.889
  H        4.399     -90.334      28.344
  H       -0.556     -85.327      29.913
  H        1.876     -85.285      29.435
  H        3.923     -82.554      30.329
  H        4.080     -84.157      32.648
  H        3.938     -86.180      31.335
  H        6.008     -84.859      29.485
  H       -1.993     -82.958      32.392
  H        3.960     -87.074      29.026
  H       -2.404     -84.157      31.204
  H        4.896     -86.273      27.748
  P        5.931     -86.935      33.140
  C        5.850     -89.165      31.864
  O        5.249     -88.363      32.868
  O        5.317     -86.146      34.245
  O        7.458     -87.329      33.410
  H        7.971     -86.536      33.708
  H        5.312     -90.086      31.774
  H        6.865     -89.370      32.132
  H        5.826     -88.644      30.930

 6  7  8  9  10  11  12  13  14  15  16  26  30  31  32  33  35 0
 6-311+G(2d,p)
 ****
 37  38 0
 6-311+G(2d,p)
 ****
 1  2  3  4  5  17  18  19  20  21  22  23  24  25 0
 3-21G
 ****
 27  28  29  34  36  39  40  41  42  43  44  45  46 0
 3-21G
 ****


