%nproc=1
%NoSave
%Mem=1900MB
#P OB98/GEN NMR

erre ene a

0 1
  C      234.228    -324.622    -220.566
  O      235.108    -323.501    -220.596
  P      235.223    -322.395    -219.452
  C      237.678    -321.506    -219.773
  O      236.280    -321.290    -219.918
  C      238.199    -322.486    -220.835
  O      237.967    -321.910    -222.156
  C      239.706    -322.740    -220.711
  O      240.071    -324.103    -220.892
  C      240.299    -321.729    -221.676
  O      241.623    -322.043    -222.080
  C      239.250    -321.693    -222.784
  N      241.840    -318.556    -225.869
  C      242.279    -319.678    -225.195
  N      243.579    -320.005    -225.343
  N      241.513    -320.408    -224.427
  C      240.256    -319.928    -224.303
  C      239.709    -318.819    -224.907
  C      240.551    -318.047    -225.795
  O      240.208    -317.056    -226.432
  N      238.395    -318.651    -224.546
  C      238.155    -319.642    -223.713
  N      239.255    -320.452    -223.538
  O      235.357    -322.909    -218.058
  O      233.820    -321.604    -219.544
  H      242.173    -322.110    -221.277
  H      233.611    -321.313    -218.633
  H      242.468    -318.045    -226.465
  H      237.208    -319.831    -223.221
  H      239.400    -322.488    -223.520
  H      240.343    -320.763    -221.160
  H      244.249    -319.422    -225.817
  H      240.056    -322.517    -219.696
  H      243.944    -320.689    -224.678
  H      237.627    -323.417    -220.765
  H      237.814    -321.933    -218.773
  H      238.222    -320.561    -219.805
  P      240.199    -325.257    -219.796
  C      239.316    -327.264    -221.128
  O      240.452    -326.649    -220.547
  O      238.723    -325.433    -219.203
  O      241.166    -324.967    -218.695
  H      238.726    -325.229    -218.248
  H      239.562    -328.303    -221.364
  H      239.048    -326.744    -222.051
  H      238.470    -327.248    -220.437
  H      234.356    -325.200    -221.457
  H      233.216    -324.280    -220.505
  H      234.451    -325.228    -219.713

 3  4  5  6  7  8  9  10  11  12  23  26  30  31 0
 6-311+G(2d,p)
 ****
 33  35  36  37  38 0
 6-311+G(2d,p)
 ****
 1  2  13  14  15  16  17  18  19  20  21  22  24  25 0
 3-21G
 ****
 27  28  29  32  34  39  40  41  42  43  44  45  46  47  48  49 0
 3-21G
 ****


