%nproc=1
%NoSave
%Mem=1900MB
#P OB98/GEN NMR

erre ene a

0 1
  C     -891.320     644.415    1020.660
  O     -892.480     643.699    1020.295
  P     -892.480     642.105    1020.465
  C     -893.780     642.264    1022.775
  O     -893.720     641.762    1021.449
  C     -895.220     642.622    1023.126
  O     -895.630     643.835    1022.407
  C     -896.260     641.582    1022.793
  O     -896.240     640.489    1023.732
  C     -897.570     642.402    1022.805
  O     -898.000     642.599    1024.155
  C     -897.060     643.736    1022.193
  N     -897.420     643.867    1020.778
  C     -898.740     644.034    1020.468
  O     -899.650     644.049    1021.320
  N     -899.040     644.154    1019.118
  C     -898.200     644.061    1018.088
  O     -898.510     644.142    1016.901
  C     -896.750     643.885    1018.456
  C     -896.400     643.781    1019.760
  O     -891.180     641.881    1021.390
  O     -892.470     641.367    1019.172
  H     -891.000     642.672    1021.938
  H     -898.800     643.145    1024.114
  H     -900.000     644.277    1018.878
  H     -896.040     643.825    1017.646
  H     -895.380     643.642    1020.059
  H     -897.530     644.573    1022.720
  H     -898.370     641.935    1022.229
  H     -896.070     641.150    1021.768
  H     -895.220     642.858    1024.218
  H     -893.140     643.163    1022.842
  H     -893.410     641.491    1023.446
  P     -896.870     639.064    1023.238
  C     -894.600     637.940    1022.515
  O     -895.700     638.014    1023.413
  O     -896.920     639.307    1021.635
  O     -898.160     638.725    1023.898
  H     -896.160     639.760    1021.313
  H     -893.740     637.463    1023.007
  H     -894.260     638.957    1022.258
  H     -894.890     637.418    1021.610
  H     -891.477     645.459    1020.489
  H     -890.493     644.078    1020.071
  H     -891.111     644.251    1021.696

 3  4  5  6  7  8  9  10  11  12  13  24  28  29  30  31  32 0
 6-311+G(2d,p)
 ****
 33  34 0
 6-311+G(2d,p)
 ****
 1  2  14  15  16  17  18  19  20  21  22  23  25  26  27 0
 3-21G
 ****
 35  36  37  38  39  40  41  42  43  44  45 0
 3-21G
 ****


