%nproc=1
%NoSave
%Mem=1900MB
#P OB98/GEN NMR

erre ene a

0 1
  C     -141.657    -201.043     921.925
  O     -141.142    -199.761     922.226
  H     -142.463    -201.277     922.627
  H     -140.877    -201.809     922.025
  H     -142.057    -201.064     920.908
  P     -139.845    -199.257     921.437
  C     -139.340    -197.426     923.202
  O     -138.888    -198.608     922.547
  C     -138.527    -197.180     924.468
  O     -138.934    -198.085     925.517
  C     -137.032    -197.412     924.272
  O     -136.443    -196.345     923.568
  C     -136.579    -197.592     925.708
  O     -136.430    -196.324     926.362
  C     -137.766    -198.390     926.322
  N     -137.519    -199.815     926.365
  C     -136.670    -200.260     927.393
  O     -136.193    -199.463     928.190
  N     -136.383    -201.605     927.461
  C     -136.892    -202.431     926.601
  N     -136.560    -203.743     926.727
  C     -137.798    -202.017     925.514
  C     -138.052    -200.707     925.449
  O     -140.078    -198.381     920.237
  O     -139.085    -200.617     921.054
  H     -136.348    -196.521     927.320
  H     -139.395    -200.947     920.179
  H     -138.206    -202.733     924.827
  H     -138.716    -200.312     924.689
  H     -137.976    -198.036     927.336
  H     -135.619    -198.117     925.773
  H     -136.871    -198.365     923.746
  H     -138.720    -196.156     924.812
  H     -135.923    -203.997     927.489
  H     -140.399    -197.586     923.462
  H     -136.970    -204.491     926.177
  H     -139.279    -196.557     922.534
  P     -135.015    -196.527     922.834
  C     -134.773    -193.963     922.631
  O     -134.211    -195.164     923.139
  O     -135.086    -196.929     921.403
  O     -134.277    -197.604     923.771
  H     -134.637    -198.509     923.635
  H     -134.149    -193.136     922.899
  H     -135.749    -193.823     923.046
  H     -134.844    -194.025     921.565

 6  7  8  9  10  11  12  13  14  15  16  26  30  31  32  33  35 0
 6-311+G(2d,p)
 ****
 37  38 0
 6-311+G(2d,p)
 ****
 1  2  3  4  5  17  18  19  20  21  22  23  24  25 0
 3-21G
 ****
 27  28  29  34  36  39  40  41  42  43  44  45  46 0
 3-21G
 ****


