%nproc=1
%NoSave
%Mem=1900MB
#P OB98/GEN NMR

erre ene a

0 1
  C     -209.246     150.234      24.748
  O     -208.860     150.844      25.966
  P     -207.864     152.096      25.973
  C     -205.569     152.693      25.000
  O     -206.554     151.677      25.141
  C     -204.549     152.335      23.921
  O     -205.205     152.340      22.625
  C     -203.348     153.291      23.826
  O     -202.213     152.499      23.451
  C     -203.735     154.208      22.678
  O     -202.621     154.867      22.092
  C     -204.442     153.207      21.761
  N     -204.699     155.586      17.235
  C     -203.649     155.106      17.941
  N     -203.664     154.509      19.153
  C     -204.913     154.427      19.635
  C     -206.074     154.903      19.043
  C     -205.937     155.494      17.778
  N     -206.998     155.960      17.029
  N     -207.164     154.685      19.875
  C     -206.660     154.093      20.940
  N     -205.314     153.856      20.810
  O     -207.585     152.680      27.320
  O     -208.574     153.167      25.018
  H     -202.949     155.499      21.424
  H     -208.956     153.886      25.554
  H     -202.675     155.204      17.467
  H     -207.218     153.812      21.823
  H     -203.726     152.595      21.202
  H     -204.437     154.976      23.038
  H     -203.139     153.842      24.753
  H     -204.203     151.308      24.102
  H     -205.056     152.804      25.962
  H     -206.802     156.245      16.076
  H     -207.942     155.664      17.273
  H     -206.055     153.649      24.756
  P     -200.771     152.825      24.059
  C     -199.164     154.821      24.071
  O     -200.438     154.344      23.671
  O     -199.697     151.833      23.730
  O     -201.038     152.900      25.640
  H     -200.199     152.815      26.120
  H     -199.194     155.104      25.130
  H     -198.914     155.706      23.475
  H     -198.390     154.057      23.922
  H     -209.910     149.420      24.951
  H     -208.378     149.867      24.242
  H     -209.742     150.953      24.130

 3  4  5  6  7  8  9  10  11  12  22  25  29  30  31  32 0
 6-311+G(2d,p)
 ****
 33  36  37 0
 6-311+G(2d,p)
 ****
 1  2  13  14  15  16  17  18  19  20  21  23  24  26 0
 3-21G
 ****
 27  28  34  35  38  39  40  41  42  43  44  45  46  47  48 0
 3-21G
 ****


