%nproc=1
%NoSave
%Mem=1900MB
#P OB98/GEN NMR

erre ene a

0 1
  C       12.295    -129.202     227.763
  O       12.818    -128.889     226.488
  H       11.624    -128.395     228.074
  H       13.108    -129.280     228.491
  H       11.728    -130.136     227.738
  P       13.616    -130.019     225.679
  C       11.733    -130.979     224.200
  O       12.893    -130.160     224.252
  C       10.800    -130.525     223.074
  O        9.925    -129.476     223.593
  C       11.533    -129.942     221.846
  O       10.743    -130.256     220.690
  C       11.484    -128.457     222.155
  O       11.809    -127.679     221.033
  C       10.058    -128.349     222.699
  N        9.790    -127.092     223.386
  C        9.119    -126.103     222.671
  O        8.726    -126.242     221.514
  N        8.918    -124.922     223.337
  C        9.318    -124.640     224.610
  O        9.092    -123.571     225.164
  C       10.050    -125.715     225.304
  C       10.247    -126.872     224.671
  O       13.836    -131.303     226.405
  O       15.002    -129.307     225.307
  H       15.688    -129.570     225.950
  H       11.944    -126.743     221.292
  H        8.432    -124.195     222.833
  H       10.398    -125.513     226.308
  H       10.784    -127.686     225.149
  H        9.325    -128.485     221.898
  H       12.216    -128.208     222.929
  H       12.542    -130.345     221.722
  H       10.153    -131.362     222.787
  H       11.217    -130.906     225.163
  H       12.035    -132.022     224.036
  P       11.380    -130.606     219.259
  C       11.626    -133.111     219.826
  O       11.101    -132.153     218.917
  O       12.818    -130.220     219.130
  O       10.487    -129.813     218.190
  H       11.058    -129.505     217.457
  H       11.375    -134.096     219.491
  H       11.208    -132.948     220.797
  H       12.690    -133.011     219.874

 6  7  8  9  10  11  12  13  14  15  16  27  31  32  33  34  35 0
 6-311+G(2d,p)
 ****
 36  37 0
 6-311+G(2d,p)
 ****
 1  2  3  4  5  17  18  19  20  21  22  23  24  25 0
 3-21G
 ****
 26  28  29  30  38  39  40  41  42  43  44  45 0
 3-21G
 ****


