%nproc=1
%NoSave
%Mem=1900MB
#P OB98/GEN NMR

erre ene a

0 1
  C     -203.516    -468.420     519.825
  O     -202.148    -468.782     519.869
  H     -203.919    -468.593     518.822
  H     -204.068    -469.035     520.539
  H     -203.636    -467.367     520.097
  P     -201.164    -468.017     518.857
  C     -201.509    -465.503     518.315
  O     -201.155    -466.468     519.299
  C     -200.994    -464.123     518.729
  O     -201.616    -463.763     519.990
  C     -199.469    -464.035     518.912
  O     -198.924    -463.031     518.051
  C     -199.281    -463.594     520.351
  O     -198.236    -462.629     520.519
  C     -200.643    -463.011     520.724
  N     -198.913    -461.590     525.308
  C     -198.723    -461.063     524.079
  N     -199.297    -461.421     522.911
  C     -200.169    -462.429     523.102
  C     -200.488    -463.053     524.294
  C     -199.799    -462.606     525.434
  N     -199.949    -463.185     526.683
  N     -201.422    -464.051     524.094
  C     -201.631    -464.058     522.795
  N     -200.887    -463.108     522.150
  O     -201.985    -468.011     517.482
  O     -199.816    -468.635     518.695
  H     -198.256    -462.357     521.454
  H     -201.405    -468.298     516.750
  H     -198.004    -460.242     524.023
  H     -202.279    -464.753     522.262
  H     -200.735    -461.957     520.432
  H     -199.044    -464.464     520.968
  H     -198.966    -464.994     518.722
  H     -201.326    -463.392     517.985
  H     -202.598    -465.456     518.221
  H     -199.325    -462.879     527.418
  H     -200.524    -464.014     526.767
  H     -201.086    -465.801     517.350
  P     -198.527    -463.489     516.561
  C     -199.073    -462.555     514.185
  O     -199.477    -462.688     515.544
  O     -199.092    -464.988     516.484
  O     -197.068    -463.430     516.276
  H     -198.579    -465.505     515.841
  H     -199.811    -461.999     513.646
  H     -198.968    -463.526     513.747
  H     -198.136    -462.040     514.140

 6  7  8  9  10  11  12  13  14  15  25  28  32  33  34  35 0
 6-311+G(2d,p)
 ****
 36  39  40 0
 6-311+G(2d,p)
 ****
 1  2  3  4  5  16  17  18  19  20  21  22  23  24 0
 3-21G
 ****
 26  27  29  30  31  37  38  41  42  43  44  45  46  47  48 0
 3-21G
 ****


