%nproc=1
%NoSave
%Mem=1900MB
#P OB98/GEN NMR

erre ene a

0 1
  C      128.198     293.704     -26.175
  O      126.956     294.215     -26.611
  H      128.352     292.721     -26.629
  H      128.202     293.594     -25.087
  H      129.009     294.367     -26.486
  P      126.506     295.633     -26.011
  C      124.326     294.800     -24.868
  O      124.906     295.595     -25.894
  C      122.808     294.961     -24.890
  O      122.448     296.284     -24.433
  C      122.192     294.831     -26.277
  O      122.072     293.481     -26.687
  C      120.847     295.503     -26.055
  O      119.890     294.592     -25.493
  C      121.194     296.628     -25.058
  N      121.245     297.939     -25.703
  C      120.049     298.646     -25.719
  O      119.003     298.217     -25.232
  N      120.080     299.858     -26.356
  C      121.157     300.401     -26.994
  O      121.103     301.459     -27.607
  C      122.401     299.613     -26.928
  C      122.386     298.431     -26.307
  O      126.775     296.640     -27.226
  O      127.215     296.047     -24.766
  H      127.595     297.141     -27.067
  H      119.074     295.109     -25.346
  H      119.217     300.382     -26.385
  H      123.277     300.016     -27.419
  H      123.283     297.821     -26.261
  H      120.447     296.674     -24.258
  H      120.421     295.867     -26.992
  H      122.765     295.417     -27.003
  H      122.370     294.225     -24.202
  H      124.706     295.126     -23.895
  H      124.609     293.755     -25.025
  P      122.923     292.983     -27.949
  C      120.744     292.464     -29.325
  O      121.970     292.000     -28.785
  O      123.974     292.003     -27.247
  O      123.528     294.094     -28.741
  H      123.594     291.513     -26.496
  H      120.258     291.665     -29.844
  H      120.935     293.267     -30.006
  H      120.114     292.811     -28.533

 6  7  8  9  10  11  12  13  14  15  16  27  31  32  33  34  35 0
 6-311+G(2d,p)
 ****
 36  37 0
 6-311+G(2d,p)
 ****
 1  2  3  4  5  17  18  19  20  21  22  23  24  25 0
 3-21G
 ****
 26  28  29  30  38  39  40  41  42  43  44  45 0
 3-21G
 ****


