%nproc=1
%NoSave
%Mem=1900MB
#P OB98/GEN NMR

erre ene a

0 1
  C      -59.145    -124.604    -128.300
  O      -59.959    -124.587    -129.479
  P      -61.526    -124.934    -129.440
  C      -61.582    -126.844    -131.168
  O      -61.964    -125.502    -130.875
  C      -61.790    -127.182    -132.647
  O      -60.673    -126.730    -133.437
  C      -61.939    -128.672    -132.940
  O      -63.245    -129.115    -132.624
  C      -61.583    -128.720    -134.424
  O      -62.715    -128.339    -135.225
  C      -60.479    -127.660    -134.519
  N      -56.655    -129.598    -137.309
  C      -57.854    -129.083    -137.655
  N      -58.823    -128.591    -136.852
  C      -58.440    -128.642    -135.565
  C      -57.250    -129.143    -135.060
  C      -56.327    -129.642    -135.996
  N      -55.112    -130.180    -135.639
  N      -57.225    -129.052    -133.684
  C      -58.374    -128.488    -133.366
  N      -59.142    -128.222    -134.466
  O      -62.386    -123.822    -128.933
  O      -61.634    -126.213    -128.485
  H      -63.039    -127.486    -134.885
  H      -62.510    -126.230    -128.054
  H      -58.067    -129.065    -138.721
  H      -58.691    -128.251    -132.358
  H      -60.553    -127.081    -135.446
  H      -61.271    -129.716    -134.752
  H      -61.196    -129.242    -132.370
  H      -62.675    -126.635    -132.994
  H      -62.187    -127.517    -130.549
  H      -54.521    -130.547    -136.368
  H      -54.880    -130.260    -134.660
  H      -60.527    -126.971    -130.900
  P      -63.510    -130.659    -132.291
  C      -65.463    -130.966    -133.928
  O      -65.064    -130.941    -132.570
  O      -63.005    -131.131    -130.969
  O      -62.793    -131.434    -133.497
  H      -62.488    -132.306    -133.183
  H      -65.584    -129.941    -134.290
  H      -66.422    -131.485    -134.002
  H      -64.726    -131.488    -134.544
  H      -58.140    -124.343    -128.557
  H      -59.161    -125.584    -127.870
  H      -59.527    -123.898    -127.593

 3  4  5  6  7  8  9  10  11  12  22  25  29  30  31  32 0
 6-311+G(2d,p)
 ****
 33  36  37 0
 6-311+G(2d,p)
 ****
 1  2  13  14  15  16  17  18  19  20  21  23  24  26 0
 3-21G
 ****
 27  28  34  35  38  39  40  41  42  43  44  45  46  47  48 0
 3-21G
 ****


