%nproc=1
%NoSave
%Mem=1900MB
#P OB98/GEN NMR

erre ene a

0 1
  C      808.288    -466.078     164.990
  O      809.083    -466.241     163.832
  H      808.125    -467.064     165.441
  H      807.320    -465.646     164.730
  H      808.801    -465.444     165.714
  P      809.413    -464.911     163.003
  C      811.984    -464.802     163.282
  O      810.896    -465.147     162.435
  C      813.107    -465.829     163.163
  O      812.756    -467.032     163.859
  C      813.427    -466.237     161.727
  O      814.299    -465.305     161.121
  C      814.119    -467.576     161.958
  O      815.496    -467.342     162.326
  C      813.346    -468.156     163.158
  N      812.032    -473.113     162.956
  C      813.217    -472.512     163.179
  N      813.506    -471.192     163.158
  C      812.404    -470.468     162.897
  C      811.128    -470.939     162.650
  C      810.953    -472.337     162.695
  N      809.735    -472.944     162.471
  N      810.253    -469.902     162.411
  C      810.982    -468.817     162.572
  N      812.297    -469.102     162.828
  O      809.176    -463.622     163.716
  O      808.510    -465.131     161.695
  H      815.486    -466.653     163.020
  H      808.547    -466.064     161.410
  H      814.046    -473.178     163.390
  H      810.597    -467.801     162.532
  H      814.016    -468.667     163.857
  H      814.127    -468.202     161.067
  H      812.513    -466.405     161.145
  H      813.998    -465.412     163.648
  H      811.649    -464.743     164.326
  H      809.744    -473.945     162.333
  H      808.972    -472.376     162.149
  H      812.339    -463.808     162.982
  P      814.372    -465.147     159.525
  C      812.554    -463.366     159.133
  O      813.947    -463.624     159.241
  O      813.616    -466.186     158.767
  O      815.939    -465.151     159.202
  H      816.085    -465.324     158.252
  H      812.398    -462.324     158.945
  H      812.069    -463.640     160.046
  H      812.147    -463.939     158.327

 6  7  8  9  10  11  12  13  14  15  25  28  32  33  34  35 0
 6-311+G(2d,p)
 ****
 36  39  40 0
 6-311+G(2d,p)
 ****
 1  2  3  4  5  16  17  18  19  20  21  22  23  24 0
 3-21G
 ****
 26  27  29  30  31  37  38  41  42  43  44  45  46  47 0
 3-21G
 ****
 48 0
 3-21G
 ****


