%nproc=1
%NoSave
%Mem=1900MB
#P OB98/GEN NMR

erre ene a

0 1
  C      126.542     369.221     -37.906
  O      126.033     369.067     -36.596
  H      125.948     369.952     -38.461
  H      127.574     369.575     -37.842
  H      126.530     368.259     -38.428
  P      124.488     368.652     -36.476
  C      123.129     367.667     -34.502
  O      124.370     367.700     -35.190
  C      123.025     366.399     -33.663
  O      123.205     365.233     -34.494
  C      124.076     366.274     -32.563
  O      123.749     367.060     -31.426
  C      123.987     364.786     -32.261
  O      122.864     364.532     -31.398
  C      123.731     364.178     -33.648
  N      126.654     359.994     -34.219
  C      125.518     360.211     -33.517
  N      124.805     361.350     -33.403
  C      125.359     362.338     -34.125
  C      126.511     362.264     -34.888
  C      127.177     361.028     -34.919
  N      128.342     360.822     -35.624
  N      126.765     363.472     -35.502
  C      125.787     364.264     -35.114
  N      124.914     363.624     -34.276
  O      124.276     367.641     -37.703
  O      123.516     369.784     -36.528
  H      122.882     365.218     -30.706
  H      123.378     367.765     -38.063
  H      125.129     359.354     -32.975
  H      125.670     365.296     -35.419
  H      122.967     363.393     -33.609
  H      124.878     364.395     -31.762
  H      125.075     366.508     -32.941
  H      122.013     366.356     -33.240
  H      122.310     367.683     -35.229
  H      128.660     359.878     -35.768
  H      128.722     361.601     -36.153
  H      123.055     368.555     -33.864
  P      124.953     367.826     -30.689
  C      125.270     370.219     -29.735
  O      124.384     369.285     -30.340
  O      125.985     368.108     -31.877
  O      125.587     367.079     -29.564
  H      126.888     368.198     -31.517
  H      124.754     371.140     -29.563
  H      126.103     370.393     -30.384
  H      125.620     369.827     -28.803

 6  7  8  9  10  11  12  13  14  15  25  28  32  33  34  35 0
 6-311+G(2d,p)
 ****
 36  39  40 0
 6-311+G(2d,p)
 ****
 1  2  3  4  5  16  17  18  19  20  21  22  23  24 0
 3-21G
 ****
 26  27  29  30  31  37  38  41  42  43  44  45  46  47  48 0
 3-21G
 ****


