%nproc=1
%NoSave
%Mem=1900MB
#P OB98/GEN NMR

erre ene a

0 1
  C       36.970      55.737    -562.161
  O       36.048      54.819    -561.578
  P       36.538      53.990    -560.292
  C       37.534      52.077    -561.747
  O       37.786      53.109    -560.798
  C       38.331      50.822    -561.395
  O       39.726      51.023    -561.682
  C       38.265      50.421    -559.927
  O       37.076      49.687    -559.624
  C       39.485      49.519    -559.822
  O       39.181      48.214    -560.355
  C       40.493      50.245    -560.722
  N       44.396      50.391    -557.418
  C       43.659      49.363    -557.897
  N       42.631      49.404    -558.766
  C       42.353      50.677    -559.111
  C       42.992      51.826    -558.676
  C       44.064      51.655    -557.792
  N       44.828      52.703    -557.317
  N       42.421      52.944    -559.247
  C       41.465      52.476    -560.028
  N       41.393      51.115    -559.988
  O       35.374      52.902    -560.098
  O       36.761      54.806    -559.062
  H       39.036      48.329    -561.316
  H       35.358      52.595    -559.172
  H       43.949      48.381    -557.539
  H       40.816      53.088    -560.632
  H       41.111      49.539    -561.300
  H       39.811      49.370    -558.789
  H       38.387      51.295    -559.269
  H       37.971      50.004    -562.041
  H       37.832      52.424    -562.737
  H       45.691      52.479    -556.839
  H       44.710      53.604    -557.753
  H       36.460      51.857    -561.761
  P       36.564      49.760    -558.103
  C       38.440      48.090    -557.407
  O       37.830      49.350    -557.207
  O       35.584      48.493    -557.999
  O       35.880      51.037    -557.746
  H       34.923      48.630    -557.299
  H       39.431      48.103    -556.961
  H       38.534      47.864    -558.480
  H       37.841      47.312    -556.923
  H       36.514      56.215    -563.002
  H       37.844      55.210    -562.481
  H       37.244      56.475    -561.437

 3  4  5  6  7  8  9  10  11  12  22  25  29  30  31  32 0
 6-311+G(2d,p)
 ****
 33  36  37 0
 6-311+G(2d,p)
 ****
 1  2  13  14  15  16  17  18  19  20  21  23  24  26 0
 3-21G
 ****
 27  28  34  35  38  39  40  41  42  43  44  45  46  47  48 0
 3-21G
 ****


