%nproc=1
%NoSave
%Mem=1900MB
#P OB98/GEN NMR

erre ene a

0 1
  C      746.959     553.410      83.699
  O      746.521     552.066      83.704
  H      746.569     553.901      82.806
  H      748.050     553.448      83.669
  H      746.591     553.936      84.585
  P      746.915     551.176      84.986
  C      744.472     550.502      85.543
  O      745.756     550.065      85.137
  C      743.374     549.701      84.829
  O      743.282     550.181      83.448
  C      743.615     548.195      84.790
  O      742.349     547.531      84.880
  C      744.160     547.974      83.374
  O      744.008     546.623      82.931
  C      743.330     549.002      82.612
  N      743.047     547.851      77.707
  C      742.289     547.408      78.781
  N      741.306     546.532      78.512
  N      742.487     547.798      80.017
  C      743.476     548.711      80.135
  C      744.308     549.227      79.154
  C      744.096     548.763      77.805
  O      744.747     549.099      76.811
  N      745.214     550.109      79.693
  C      744.942     550.128      80.994
  N      743.900     549.299      81.302
  O      746.632     552.179      86.204
  O      748.309     550.654      84.996
  H      744.551     546.058      83.516
  H      747.453     552.655      86.449
  H      742.866     547.507      76.777
  H      745.464     550.716      81.723
  H      742.297     548.665      82.439
  H      745.228     548.224      83.344
  H      741.068     546.217      77.581
  H      744.286     547.808      85.563
  H      740.713     546.230      79.277
  H      742.412     549.936      85.296
  H      744.359     551.564      85.307
  H      744.377     550.367      86.629
  P      742.138     546.444      86.043
  C      740.507     547.692      87.650
  O      740.682     546.666      86.676
  O      743.109     546.980      87.190
  O      742.465     545.045      85.639
  H      743.420     546.233      87.752
  H      739.486     547.710      87.970
  H      740.763     548.638      87.221
  H      741.141     547.498      88.490

 6  7  8  9  10  11  12  13  14  15  26  29  33  34 0
 6-311+G(2d,p)
 ****
 36  38  39  40  41 0
 6-311+G(2d,p)
 ****
 1  2  3  4  5  16  17  18  19  20  21  22  23  24  25 0
 3-21G
 ****
 27  28  30  31  32  35  37  42  43  44  45  46  47 0
 3-21G
 ****
 48  49 0
 3-21G
 ****


