%nproc=1
%NoSave
%Mem=1900MB
#P OB98/GEN NMR

erre ene a

0 1
  C        8.096     361.083    1335.277
  O        8.067     359.668    1335.410
  H        7.155     361.490    1335.680
  H        8.171     361.365    1334.230
  H        8.922     361.499    1335.856
  P        9.373     358.833    1335.044
  C        9.506     359.274    1332.494
  O        9.207     358.342    1333.529
  C        9.379     358.615    1331.129
  O       10.369     357.535    1331.004
  C        8.019     357.946    1330.882
  O        7.027     358.923    1330.572
  C        8.358     357.003    1329.746
  O        8.376     357.702    1328.476
  C        9.771     356.533    1330.140
  N        9.784     355.213    1330.787
  C       10.860     354.362    1330.438
  O       11.711     354.679    1329.603
  N       10.867     353.144    1331.041
  C        9.881     352.648    1331.867
  O        9.881     351.515    1332.303
  C        8.774     353.570    1332.164
  C        8.786     354.804    1331.631
  O        9.763     357.769    1336.013
  O       10.516     359.958    1334.920
  H        8.832     357.107    1327.844
  H       11.097     359.926    1335.721
  H       11.607     352.516    1330.796
  H        7.983     353.228    1332.822
  H        7.967     355.478    1331.848
  H       10.418     356.475    1329.241
  H        7.634     356.193    1329.652
  H        7.710     357.354    1331.757
  H        9.596     359.372    1330.327
  H       10.539     359.633    1332.626
  H        8.824     360.137    1332.582
  P        6.180     359.601    1331.750
  C        4.813     357.464    1332.107
  O        4.767     358.852    1331.826
  O        6.116     361.095    1331.732
  O        6.934     359.102    1333.100
  H        7.261     359.877    1333.585
  H        3.818     357.072    1332.133
  H        5.283     357.307    1333.055
  H        5.373     356.964    1331.345

 6  7  8  9  10  11  12  13  14  15  16  26  31  32  33  34  35 0
 6-311+G(2d,p)
 ****
 36  37 0
 6-311+G(2d,p)
 ****
 1  2  3  4  5  17  18  19  20  21  22  23  24  25 0
 3-21G
 ****
 27  28  29  30  38  39  40  41  42  43  44  45 0
 3-21G
 ****


