%nproc=1
%NoSave
%Mem=1900MB
#P OB98/GEN NMR

erre ene a

0 1
  C     -341.540    -891.970    -298.485
  O     -341.115    -892.820    -297.436
  H     -341.263    -890.950    -298.239
  H     -342.631    -892.020    -298.594
  H     -341.062    -892.250    -299.422
  P     -341.408    -894.390    -297.550
  C     -338.857    -894.780    -297.737
  O     -340.129    -894.970    -298.329
  C     -338.335    -896.090    -297.169
  O     -338.197    -897.100    -298.203
  C     -336.944    -896.010    -296.535
  O     -336.924    -895.360    -295.276
  C     -336.619    -897.490    -296.425
  O     -337.352    -898.060    -295.324
  C     -337.145    -898.010    -297.785
  N     -336.092    -898.080    -298.800
  C     -335.209    -899.170    -298.717
  O     -335.327    -900.000    -297.823
  N     -334.196    -899.260    -299.634
  C     -334.054    -898.350    -300.544
  N     -333.023    -898.500    -301.422
  C     -334.943    -897.180    -300.654
  C     -335.933    -897.110    -299.763
  O     -342.736    -894.770    -298.122
  O     -341.169    -894.950    -296.068
  H     -338.296    -897.920    -295.508
  H     -341.348    -895.920    -296.083
  H     -334.765    -896.430    -301.410
  H     -336.631    -896.280    -299.778
  H     -337.600    -899.000    -297.674
  H     -335.563    -897.690    -296.240
  H     -336.227    -895.540    -297.223
  H     -339.081    -896.460    -296.451
  H     -332.426    -899.310    -301.315
  H     -338.956    -894.020    -296.951
  H     -332.796    -897.790    -302.112
  H     -338.142    -894.420    -298.490
  P     -335.502    -895.200    -294.552
  C     -335.501    -892.610    -294.952
  O     -334.846    -893.860    -295.146
  O     -334.635    -896.370    -295.209
  O     -335.532    -895.270    -293.064
  H     -334.605    -897.150    -294.615
  H     -334.927    -891.832    -295.411
  H     -335.593    -892.415    -293.904
  H     -336.474    -892.645    -295.396

 6  7  8  9  10  11  12  13  14  15  16  26  30  31  32  33  35 0
 6-311+G(2d,p)
 ****
 37  38 0
 6-311+G(2d,p)
 ****
 1  2  3  4  5  17  18  19  20  21  22  23  24  25 0
 3-21G
 ****
 27  28  29  34  36  39  40  41  42  43  44  45  46 0
 3-21G
 ****


