%nproc=1
%NoSave
%Mem=1900MB
#P OB98/GEN NMR

erre ene a

0 1
  C      -82.097      90.628      51.765
  O      -81.926      91.152      50.465
  H      -81.166      90.139      52.068
  H      -82.898      89.885      51.773
  H      -82.321      91.424      52.479
  P      -83.100      92.040      49.830
  C      -84.073      89.948      48.681
  O      -83.596      91.276      48.509
  C      -84.610      89.413      47.357
  O      -84.943      88.012      47.481
  C      -85.885      90.103      46.883
  O      -85.598      91.382      46.354
  C      -86.395      89.083      45.877
  O      -85.693      89.193      44.628
  C      -86.046      87.750      46.581
  N      -87.183      87.169      47.296
  C      -87.714      86.001      46.758
  O      -87.276      85.467      45.741
  N      -88.805      85.487      47.410
  C      -89.452      86.068      48.462
  O      -90.546      85.693      48.873
  C      -88.803      87.258      49.033
  C      -87.724      87.756      48.424
  O      -82.790      93.487      49.643
  O      -84.323      91.828      50.844
  H      -84.392      92.605      51.431
  H      -86.254      88.758      43.956
  H      -89.226      84.665      47.000
  H      -89.249      87.711      49.910
  H      -87.247      88.651      48.809
  H      -85.690      87.012      45.850
  H      -87.457      89.210      45.659
  H      -86.602      90.175      47.709
  H      -83.816      89.505      46.604
  H      -84.880      89.961      49.423
  H      -83.258      89.319      49.053
  P      -86.532      92.641      46.677
  C      -88.586      91.747      45.433
  O      -87.610      92.778      45.499
  O      -85.801      93.903      46.999
  O      -87.419      92.163      47.924
  H      -87.340      92.820      48.644
  H      -89.250      91.937      44.616
  H      -89.142      91.723      46.347
  H      -88.100      90.805      45.287

 6  7  8  9  10  11  12  13  14  15  16  27  31  32  33  34  35 0
 6-311+G(2d,p)
 ****
 36  37 0
 6-311+G(2d,p)
 ****
 1  2  3  4  5  17  18  19  20  21  22  23  24  25 0
 3-21G
 ****
 26  28  29  30  38  39  40  41  42  43  44  45 0
 3-21G
 ****


