%nproc=1
%NoSave
%Mem=1900MB
#P OB98/GEN NMR

erre ene a

0 1
  C       -2.194      14.520       4.115
  O       -2.345      14.610       5.517
  H       -1.669      15.399       3.734
  H       -1.604      13.630       3.879
  H       -3.173      14.433       3.634
  P       -3.156      15.876       6.077
  C       -0.812      16.803       6.726
  O       -2.081      17.068       6.143
  C        0.183      17.864       6.269
  O        0.277      17.867       4.826
  C       -0.208      19.284       6.662
  O        0.154      19.599       7.995
  C        0.608      20.088       5.664
  O        1.985      20.127       6.081
  C        0.460      19.242       4.390
  N       -0.953      21.369      -0.047
  C        0.261      21.066       0.462
  N        0.551      20.481       1.642
  C       -0.571      20.193       2.319
  C       -1.877      20.436       1.926
  C       -2.053      21.060       0.679
  N       -3.287      21.400       0.171
  N       -2.763      20.019       2.900
  C       -2.003      19.517       3.853
  N       -0.670      19.630       3.563
  O       -3.396      15.524       7.620
  O       -4.414      16.218       5.353
  H        1.995      20.444       7.004
  H       -4.069      16.117       8.004
  H        1.111      21.332      -0.160
  H       -2.368      19.075       4.771
  H        1.353      19.275       3.756
  H        0.269      21.123       5.578
  H       -1.273      19.471       6.484
  H        1.172      17.603       6.666
  H       -0.471      15.814       6.405
  H       -3.301      21.975      -0.657
  H       -4.098      21.309       0.765
  H       -0.903      16.817       7.816
  P       -0.818      20.582       8.814
  C        1.009      22.427       8.724
  O       -0.346      22.077       8.469
  O       -0.336      20.383      10.326
  O       -2.275      20.303       8.641
  H       -1.083      20.488      10.946
  H        1.172      23.447       8.446
  H        1.655      21.794       8.152
  H        1.219      22.303       9.766

 6  7  8  9  10  11  12  13  14  15  25  28  32  33  34  35 0
 6-311+G(2d,p)
 ****
 36  39  40 0
 6-311+G(2d,p)
 ****
 1  2  3  4  5  16  17  18  19  20  21  22  23  24 0
 3-21G
 ****
 26  27  29  30  31  37  38  41  42  43  44  45  46  47 0
 3-21G
 ****
 48 0
 3-21G
 ****


