%nproc=1
%NoSave
%Mem=1900MB
#P OB98/GEN NMR

erre ene a

0 1
  C     -385.569      24.357     -92.647
  O     -386.403      25.269     -91.938
  P     -385.866      26.757     -91.684
  C     -385.516      27.004     -89.071
  O     -386.293      27.246     -90.225
  C     -386.400      27.168     -87.823
  O     -387.179      25.974     -87.601
  C     -385.599      27.422     -86.550
  O     -385.316      28.796     -86.366
  C     -386.512      26.845     -85.487
  O     -387.586      27.758     -85.196
  C     -387.052      25.584     -86.203
  N     -386.253      24.343     -86.128
  C     -386.208      23.620     -84.939
  O     -386.796      23.944     -83.910
  N     -385.459      22.471     -84.959
  C     -384.903      21.894     -86.062
  O     -384.292      20.832     -86.032
  C     -385.107      22.617     -87.320
  C     -385.747      23.787     -87.296
  O     -386.757      27.654     -92.660
  O     -384.401      26.937     -91.936
  H     -388.125      27.837     -86.004
  H     -386.198      28.065     -93.348
  H     -385.354      21.974     -84.087
  H     -384.724      22.169     -88.229
  H     -385.902      24.335     -88.224
  H     -388.057      25.335     -85.840
  H     -385.981      26.694     -84.547
  H     -384.677      26.832     -86.557
  H     -387.095      27.998     -87.998
  H     -384.669      27.691     -89.023
  H     -385.103      25.991     -89.113
  P     -383.882      29.246     -85.808
  C     -385.042      29.789     -83.585
  O     -384.190      30.268     -84.605
  O     -382.903      29.722     -86.825
  O     -383.358      27.946     -85.029
  H     -382.764      27.412     -85.604
  H     -385.040      30.510     -82.760
  H     -384.685      28.823     -83.209
  H     -386.061      29.687     -83.966
  H     -386.066      23.413     -92.734
  H     -384.649      24.228     -92.116
  H     -385.366      24.744     -93.624

 3  4  5  6  7  8  9  10  11  12  13  23  28  29  30  31  32 0
 6-311+G(2d,p)
 ****
 33  34 0
 6-311+G(2d,p)
 ****
 1  2  14  15  16  17  18  19  20  21  22  24  25  26  27 0
 3-21G
 ****
 35  36  37  38  39  40  41  42  43  44  45 0
 3-21G
 ****


