%nproc=1
%NoSave
%Mem=1900MB
#P OB98/GEN NMR

erre ene a

0 1
  C     -226.791     892.174     279.181
  O     -227.779     892.959     278.548
  H     -225.905     892.791     279.348
  H     -226.516     891.332     278.539
  H     -227.152     891.805     280.147
  P     -229.236     892.303     278.396
  C     -230.333     894.623     277.988
  O     -230.096     893.311     277.488
  C     -230.614     895.573     276.825
  O     -229.450     895.685     275.967
  C     -231.776     895.152     275.924
  O     -233.025     895.533     276.471
  C     -231.448     895.945     274.673
  O     -231.832     897.327     274.861
  C     -229.924     895.830     274.593
  N     -229.818     893.706     269.988
  C     -230.423     894.883     270.410
  N     -231.092     895.584     269.481
  N     -230.364     895.321     271.643
  C     -229.666     894.509     272.471
  C     -229.037     893.318     272.172
  C     -229.089     892.849     270.798
  O     -228.567     891.826     270.372
  N     -228.427     892.787     273.266
  C     -228.693     893.638     274.244
  N     -229.455     894.694     273.817
  O     -229.881     892.478     279.852
  O     -229.252     890.868     277.967
  H     -231.642     897.788     274.031
  H     -230.436     891.700     280.052
  H     -229.901     893.409     269.034
  H     -228.366     893.523     275.272
  H     -229.445     896.719     274.172
  H     -231.990     895.580     273.794
  H     -231.210     895.281     268.528
  H     -231.730     894.082     275.699
  H     -231.496     896.469     269.764
  H     -230.796     896.570     277.247
  H     -229.436     894.954     278.524
  H     -231.179     894.599     278.669
  P     -234.325     894.737     275.969
  C     -235.792     895.242     278.054
  O     -235.574     895.471     276.669
  O     -234.214     893.344     276.757
  O     -234.417     894.538     274.503
  H     -234.727     892.656     276.292
  H     -236.651     895.792     278.376
  H     -234.935     895.563     278.608
  H     -235.954     894.198     278.222

 6  7  8  9  10  11  12  13  14  15  26  29  33  34 0
 6-311+G(2d,p)
 ****
 36  38  39  40  41 0
 6-311+G(2d,p)
 ****
 1  2  3  4  5  16  17  18  19  20  21  22  23  24  25 0
 3-21G
 ****
 27  28  30  31  32  35  37  42  43  44  45  46  47 0
 3-21G
 ****
 48  49 0
 3-21G
 ****


