%nproc=1
%NoSave
%Mem=1900MB
#P OB98/GEN NMR

erre ene a

0 1
  C     -128.723     102.528     781.034
  O     -128.662     103.746     780.305
  P     -127.766     103.778     778.978
  C     -126.110     105.403     780.154
  O     -126.285     104.189     779.448
  C     -124.700     105.946     779.945
  O     -123.712     104.951     780.304
  C     -124.379     106.315     778.498
  O     -124.877     107.598     778.147
  C     -122.855     106.332     778.534
  O     -122.390     107.573     779.100
  C     -122.550     105.163     779.480
  N     -119.412     103.024     776.117
  C     -119.329     104.249     776.763
  N     -118.286     105.038     776.418
  N     -120.177     104.659     777.665
  C     -121.173     103.767     777.902
  C     -121.367     102.524     777.339
  C     -120.420     102.093     776.336
  O     -120.472     101.044     775.696
  N     -122.481     101.917     777.844
  C     -122.968     102.774     778.721
  N     -122.227     103.939     778.758
  O     -128.280     105.081     778.209
  O     -127.855     102.549     778.130
  H     -122.681     107.585     780.033
  H     -128.002     105.050     777.272
  H     -118.736     102.757     775.431
  H     -123.838     102.617     779.328
  H     -121.706     105.389     780.144
  H     -122.406     106.249     777.547
  H     -117.626     104.803     775.680
  H     -124.718     105.542     777.802
  H     -118.226     105.962     776.822
  H     -124.563     106.812     780.604
  H     -126.285     105.233     781.216
  H     -126.849     106.136     779.806
  P     -125.705     107.700     776.771
  C     -123.684     108.042     775.168
  O     -124.693     107.175     775.639
  O     -125.780     109.279     776.517
  O     -127.047     107.058     776.809
  H     -126.560     109.494     775.981
  H     -122.944     107.463     774.617
  H     -123.176     108.554     776.003
  H     -124.120     108.796     774.494
  H     -129.353     102.655     781.889
  H     -127.739     102.254     781.354
  H     -129.122     101.757     780.408

 3  4  5  6  7  8  9  10  11  12  23  26  30  31 0
 6-311+G(2d,p)
 ****
 33  35  36  37  38 0
 6-311+G(2d,p)
 ****
 1  2  13  14  15  16  17  18  19  20  21  22  24  25 0
 3-21G
 ****
 27  28  29  32  34  39  40  41  42  43  44  45  46  47  48  49 0
 3-21G
 ****


