%nproc=1
%NoSave
%Mem=1900MB
#P OB98/GEN NMR

erre ene a

0 1
  C      347.745     353.697      80.137
  O      346.980     352.731      79.443
  H      348.802     353.539      79.911
  H      347.595     353.587      81.213
  H      347.465     354.709      79.826
  P      345.389     352.917      79.439
  C      345.407     353.558      76.919
  O      345.050     353.933      78.241
  C      344.855     354.573      75.921
  O      343.399     354.521      75.965
  C      345.267     356.024      76.209
  O      345.457     356.695      74.960
  C      344.046     356.598      76.901
  O      343.947     358.015      76.816
  C      342.922     355.868      76.158
  N      341.660     355.875      76.896
  C      340.490     355.744      76.155
  O      340.442     355.537      74.943
  N      339.323     355.858      76.870
  C      339.222     356.113      78.204
  O      338.146     356.227      78.784
  C      340.492     356.252      78.929
  C      341.634     356.132      78.251
  O      345.127     353.792      80.753
  O      344.596     351.654      79.423
  H      344.983     353.213      81.524
  H      343.055     358.263      77.132
  H      338.466     355.766      76.348
  H      340.445     356.462      79.989
  H      342.589     356.251      78.749
  H      342.774     356.308      75.166
  H      344.053     356.323      77.962
  H      346.171     356.119      76.821
  H      345.155     354.276      74.911
  H      344.988     352.574      76.696
  H      346.501     353.504      76.842
  P      345.988     358.211      75.012
  C      348.131     357.386      73.750
  O      347.580     358.115      74.836
  O      345.776     358.561      76.557
  O      345.279     359.110      74.054
  H      345.933     357.800      77.144
  H      349.199     357.432      73.795
  H      347.794     357.811      72.828
  H      347.815     356.365      73.809

 6  7  8  9  10  11  12  13  14  15  16  27  31  32  33  34  35 0
 6-311+G(2d,p)
 ****
 36  37 0
 6-311+G(2d,p)
 ****
 1  2  3  4  5  17  18  19  20  21  22  23  24  25 0
 3-21G
 ****
 26  28  29  30  38  39  40  41  42  43  44  45 0
 3-21G
 ****


