%nproc=1
%NoSave
%Mem=1900MB
#P OB98/GEN NMR

erre ene a

0 1
  C     -148.248     868.543    -214.649
  O     -146.903     868.306    -215.019
  P     -146.245     866.867    -214.756
  C     -143.985     868.009    -214.252
  O     -144.667     866.993    -214.998
  C     -142.508     868.044    -214.622
  O     -141.803     866.935    -214.020
  C     -142.244     867.923    -216.124
  O     -142.520     869.145    -216.777
  C     -140.775     867.510    -216.141
  O     -139.919     868.653    -215.976
  C     -140.692     866.595    -214.898
  N     -137.940     862.311    -215.087
  C     -137.587     863.596    -214.873
  N     -138.381     864.691    -214.880
  C     -139.650     864.355    -215.164
  C     -140.153     863.087    -215.441
  C     -139.245     862.018    -215.375
  N     -139.594     860.698    -215.538
  N     -141.513     863.158    -215.715
  C     -141.814     864.432    -215.611
  N     -140.734     865.186    -215.216
  O     -146.907     865.720    -215.452
  O     -146.344     866.690    -213.166
  H     -140.015     869.212    -216.769
  H     -146.891     865.898    -212.955
  H     -136.541     863.763    -214.650
  H     -142.785     864.863    -215.805
  H     -139.783     866.777    -214.317
  H     -140.493     867.009    -217.068
  H     -142.850     867.116    -216.550
  H     -142.078     868.969    -214.219
  H     -144.095     867.763    -213.185
  H     -138.887     860.007    -215.315
  H     -140.572     860.449    -215.438
  H     -144.449     868.977    -214.452
  P     -143.431     869.166    -218.095
  C     -141.471     869.790    -219.641
  O     -142.734     870.181    -219.133
  O     -144.889     869.389    -217.872
  O     -143.152     867.726    -218.763
  H     -143.954     867.432    -219.227
  H     -140.706     869.986    -218.884
  H     -141.248     870.373    -220.524
  H     -141.466     868.727    -219.906
  H     -148.514     869.549    -214.898
  H     -148.359     868.395    -213.595
  H     -148.887     867.865    -215.174

 3  4  5  6  7  8  9  10  11  12  22  25  29  30  31  32 0
 6-311+G(2d,p)
 ****
 33  36  37 0
 6-311+G(2d,p)
 ****
 1  2  13  14  15  16  17  18  19  20  21  23  24  26 0
 3-21G
 ****
 27  28  34  35  38  39  40  41  42  43  44  45  46  47  48 0
 3-21G
 ****


