%nproc=1
%NoSave
%Mem=1900MB
#P OB98/GEN NMR

erre ene a

0 1
  C      270.133     119.794    -403.281
  O      271.332     119.044    -403.242
  H      269.781     119.996    -402.266
  H      270.331     120.746    -403.780
  H      269.366     119.254    -403.843
  P      271.244     117.590    -402.570
  C      272.683     118.189    -400.495
  O      272.575     117.425    -401.687
  C      273.974     117.841    -399.763
  O      273.898     116.503    -399.232
  C      275.227     117.868    -400.633
  O      275.707     119.188    -400.826
  C      276.180     117.046    -399.780
  O      276.708     117.861    -398.717
  C      275.250     115.967    -399.206
  N      276.065     110.926    -398.924
  C      276.043     111.889    -397.979
  N      275.797     113.207    -398.128
  C      275.536     113.498    -399.413
  C      275.500     112.622    -400.484
  C      275.787     111.275    -400.205
  N      275.873     110.308    -401.194
  N      275.212     113.294    -401.657
  C      275.096     114.556    -401.299
  N      275.277     114.726    -399.954
  O      271.487     116.608    -403.814
  O      269.962     117.289    -401.871
  H      277.128     118.633    -399.138
  H      270.626     116.300    -404.151
  H      276.256     111.560    -396.967
  H      274.887     115.371    -401.975
  H      275.483     115.733    -398.160
  H      277.034     116.656    -400.343
  H      275.065     117.351    -401.587
  H      274.076     118.530    -398.914
  H      271.829     117.972    -399.845
  H      276.512     109.551    -400.966
  H      275.920     110.676    -402.137
  H      272.669     119.251    -400.757
  P      275.873     119.709    -402.334
  C      278.452     119.742    -402.163
  O      277.272     120.497    -402.394
  O      274.778     120.872    -402.430
  O      275.662     118.680    -403.390
  H      274.168     120.692    -403.172
  H      279.305     120.384    -402.232
  H      278.529     118.967    -402.897
  H      278.411     119.306    -401.187

 6  7  8  9  10  11  12  13  14  15  25  28  32  33  34  35 0
 6-311+G(2d,p)
 ****
 36  39  40 0
 6-311+G(2d,p)
 ****
 1  2  3  4  5  16  17  18  19  20  21  22  23  24 0
 3-21G
 ****
 26  27  29  30  31  37  38  41  42  43  44  45  46  47  48 0
 3-21G
 ****


