%nproc=1
%NoSave
%Mem=1900MB
#P OB98/GEN NMR

erre ene a

0 1
  C     -522.406    -357.564     -12.324
  O     -523.369    -356.854     -11.575
  H     -521.652    -357.966     -11.645
  H     -521.912    -356.900     -13.041
  H     -522.879    -358.398     -12.854
  P     -524.515    -356.095     -12.388
  C     -524.044    -353.963     -10.976
  O     -524.208    -354.522     -12.273
  C     -522.953    -352.891     -11.021
  O     -521.820    -353.372     -11.772
  C     -523.386    -351.603     -11.706
  O     -524.173    -350.773     -10.872
  C     -522.035    -350.980     -12.025
  O     -521.505    -350.248     -10.910
  C     -521.163    -352.209     -12.339
  N     -520.939    -352.365     -13.778
  C     -519.747    -351.816     -14.255
  O     -518.931    -351.244     -13.544
  N     -519.551    -351.922     -15.607
  C     -520.424    -352.457     -16.509
  O     -520.200    -352.457     -17.716
  C     -521.669    -353.008     -15.947
  C     -521.863    -352.927     -14.622
  O     -525.815    -356.298     -11.474
  O     -524.728    -356.589     -13.784
  H     -526.405    -356.954     -11.889
  H     -522.157    -349.551     -10.706
  H     -518.693    -351.525     -15.965
  H     -522.383    -353.439     -16.636
  H     -522.786    -353.310     -14.187
  H     -520.193    -352.126     -11.835
  H     -522.114    -350.291     -12.858
  H     -523.902    -351.831     -12.652
  H     -522.626    -352.677      -9.988
  H     -523.732    -354.743     -10.273
  H     -524.995    -353.545     -10.638
  P     -525.727    -350.592     -11.247
  C     -525.290    -348.005     -11.276
  O     -525.867    -349.139     -11.903
  O     -526.367    -350.451      -9.792
  O     -526.261    -351.734     -12.062
  H     -525.734    -350.079      -9.150
  H     -525.490    -347.133     -11.863
  H     -524.232    -348.143     -11.192
  H     -525.712    -347.883     -10.300

 6  7  8  9  10  11  12  13  14  15  16  27  31  32  33  34  35 0
 6-311+G(2d,p)
 ****
 36  37 0
 6-311+G(2d,p)
 ****
 1  2  3  4  5  17  18  19  20  21  22  23  24  25 0
 3-21G
 ****
 26  28  29  30  38  39  40  41  42  43  44  45 0
 3-21G
 ****


