%nproc=1
%NoSave
%Mem=1900MB
#P OB98/GEN NMR

erre ene a

0 1
  C      264.328    -128.546     -35.593
  O      263.001    -128.974     -35.908
  P      262.091    -127.927     -36.716
  C      262.763    -128.638     -39.120
  O      261.737    -128.577     -38.141
  C      262.165    -128.637     -40.529
  O      263.129    -128.269     -41.534
  C      261.618    -129.993     -40.953
  O      260.340    -130.202     -40.378
  C      261.578    -129.850     -42.469
  O      260.373    -129.187     -42.901
  C      262.806    -128.974     -42.760
  N      264.906    -131.397     -46.687
  C      263.621    -130.912     -46.527
  N      262.785    -131.076     -47.575
  N      263.198    -130.321     -45.441
  C      264.142    -130.226     -44.477
  C      265.453    -130.641     -44.526
  C      265.909    -131.297     -45.733
  O      267.040    -131.722     -45.930
  N      266.125    -130.317     -43.375
  C      265.187    -129.821     -42.589
  N      263.981    -129.685     -43.231
  O      263.113    -126.748     -37.071
  O      260.923    -127.427     -35.934
  H      259.655    -129.390     -42.273
  H      262.893    -125.952     -36.550
  H      265.176    -131.853     -47.540
  H      265.334    -129.523     -41.561
  H      262.586    -128.213     -43.519
  H      261.589    -130.822     -42.970
  H      263.044    -131.520     -48.442
  H      262.318    -130.788     -40.669
  H      261.841    -130.720     -47.482
  H      261.359    -127.892     -40.544
  H      263.367    -129.536     -38.977
  H      263.434    -127.782     -38.980
  P      260.007    -131.662     -39.806
  C      261.681    -131.668     -37.822
  O      260.330    -131.648     -38.238
  O      261.170    -132.570     -40.431
  O      258.659    -132.181     -40.178
  H      260.788    -133.404     -40.765
  H      261.764    -131.148     -36.865
  H      262.337    -131.180     -38.549
  H      262.002    -132.705     -37.689
  H      264.835    -129.321     -35.058
  H      264.284    -127.665     -34.988
  H      264.858    -128.331     -36.498

 3  4  5  6  7  8  9  10  11  12  23  26  30  31 0
 6-311+G(2d,p)
 ****
 33  35  36  37  38 0
 6-311+G(2d,p)
 ****
 1  2  13  14  15  16  17  18  19  20  21  22  24  25 0
 3-21G
 ****
 27  28  29  32  34  39  40  41  42  43  44  45  46  47  48  49 0
 3-21G
 ****


