%nproc=1
%NoSave
%Mem=1900MB
#P OB98/GEN NMR

erre ene a

0 1
  C     -257.220    -106.503    -231.760
  O     -257.344    -107.421    -232.827
  H     -258.059    -106.647    -231.074
  H     -257.253    -105.480    -232.143
  H     -256.286    -106.668    -231.215
  P     -256.103    -107.551    -233.834
  C     -255.484    -109.905    -232.921
  O     -255.065    -108.569    -233.150
  C     -254.468    -110.627    -232.034
  O     -254.302    -109.864    -230.805
  C     -254.885    -112.051    -231.639
  O     -253.710    -112.868    -231.592
  C     -255.425    -111.871    -230.231
  O     -255.398    -113.057    -229.449
  C     -254.496    -110.776    -229.702
  N     -255.045    -110.084    -228.539
  C     -254.893    -110.701    -227.299
  O     -254.260    -111.736    -227.104
  N     -255.515    -110.073    -226.248
  C     -256.264    -108.936    -226.319
  O     -256.811    -108.434    -225.344
  C     -256.395    -108.337    -227.655
  C     -255.790    -108.932    -228.686
  O     -255.378    -106.133    -233.696
  O     -256.455    -107.880    -235.247
  H     -255.742    -105.498    -234.342
  H     -255.615    -112.806    -228.529
  H     -255.414    -110.506    -225.345
  H     -256.992    -107.441    -227.751
  H     -255.883    -108.527    -229.690
  H     -253.513    -111.195    -229.452
  H     -256.462    -111.518    -230.274
  H     -255.623    -112.504    -232.310
  H     -253.497    -110.630    -232.543
  H     -255.559    -110.430    -233.879
  H     -256.471    -109.897    -232.443
  P     -253.098    -113.361    -232.990
  C     -250.985    -111.850    -232.644
  O     -252.098    -112.196    -233.456
  O     -254.364    -113.208    -233.954
  O     -252.514    -114.732    -232.919
  H     -254.925    -112.448    -233.727
  H     -250.435    -111.059    -233.110
  H     -250.351    -112.704    -232.525
  H     -251.330    -111.526    -231.684

 6  7  8  9  10  11  12  13  14  15  16  27  31  32  33  34  35 0
 6-311+G(2d,p)
 ****
 36  37 0
 6-311+G(2d,p)
 ****
 1  2  3  4  5  17  18  19  20  21  22  23  24  25 0
 3-21G
 ****
 26  28  29  30  38  39  40  41  42  43  44  45 0
 3-21G
 ****


