%nproc=1
%NoSave
%Mem=1900MB
#P OB98/GEN NMR

erre ene a

0 1
  C     -111.600      89.103    -133.617
  O     -110.845      87.907    -133.593
  H     -111.347      89.656    -134.526
  H     -111.349      89.718    -132.750
  H     -112.670      88.879    -133.624
  P     -111.201      86.854    -132.431
  C     -111.253      84.743    -133.988
  O     -110.620      85.448    -132.936
  C     -110.305      83.700    -134.582
  O     -109.375      84.369    -135.468
  C     -109.490      82.938    -133.537
  O     -109.349      81.584    -133.969
  C     -108.141      83.634    -133.560
  O     -107.097      82.787    -133.086
  C     -108.036      84.051    -135.034
  N     -107.129      85.181    -135.230
  C     -105.764      84.930    -135.061
  O     -105.376      83.806    -134.740
  N     -104.875      85.964    -135.213
  C     -105.316      87.163    -135.445
  N     -104.385      88.147    -135.564
  C     -106.750      87.484    -135.577
  C     -107.590      86.457    -135.470
  O     -112.784      86.700    -132.607
  O     -110.766      87.278    -131.068
  H     -106.236      83.211    -133.304
  H     -113.070      86.653    -133.534
  H     -107.070      88.501    -135.755
  H     -108.662      86.602    -135.563
  H     -107.678      83.213    -135.648
  H     -108.168      84.524    -132.918
  H     -109.934      82.961    -132.541
  H     -110.891      83.014    -135.204
  H     -103.413      87.889    -135.447
  H     -111.570      85.436    -134.774
  H     -104.616      89.122    -135.692
  H     -112.146      84.255    -133.582
  P     -110.368      80.476    -133.420
  C     -110.460      79.171    -135.643
  O     -110.165      79.122    -134.256
  O     -111.786      80.916    -133.267
  O     -109.740      80.092    -131.990
  H     -110.479      79.954    -131.366
  H     -110.284      78.210    -136.079
  H     -109.833      79.898    -136.116
  H     -111.486      79.442    -135.780

 6  7  8  9  10  11  12  13  14  15  16  26  30  31  32  33  35 0
 6-311+G(2d,p)
 ****
 37  38 0
 6-311+G(2d,p)
 ****
 1  2  3  4  5  17  18  19  20  21  22  23  24  25 0
 3-21G
 ****
 27  28  29  34  36  39  40  41  42  43  44  45  46 0
 3-21G
 ****


