%nproc=1
%NoSave
%Mem=1900MB
#P OB98/GEN NMR

erre ene a

0 1
  C     -872.930     112.946       7.838
  O     -872.693     111.547       8.007
  P     -873.970     110.578       8.049
  C     -873.676     110.377      10.651
  O     -873.821     109.719       9.388
  C     -873.811     109.373      11.792
  O     -875.140     108.746      11.764
  C     -872.818     108.209      11.727
  O     -871.530     108.635      12.115
  C     -873.487     107.219      12.671
  O     -873.201     107.544      14.030
  C     -874.986     107.429      12.367
  N     -875.563     106.392      11.519
  C     -875.249     105.081      11.893
  O     -874.512     104.800      12.832
  N     -875.787     104.097      11.107
  C     -876.580     104.300      10.000
  O     -877.055     103.379       9.346
  C     -876.838     105.712       9.644
  C     -876.324     106.677      10.401
  O     -873.614     109.551       6.874
  O     -875.261     111.308       7.889
  H     -872.674     109.363       6.809
  H     -873.703     106.896      14.585
  H     -875.589     103.148      11.351
  H     -877.432     105.891       8.766
  H     -876.498     107.706      10.155
  H     -875.553     107.471      13.306
  H     -873.136     106.189      12.506
  H     -872.790     107.803      10.710
  H     -873.712     109.908      12.731
  H     -874.443     111.148      10.745
  H     -872.702     110.865      10.681
  P     -870.676     109.470      11.039
  C     -870.023     107.206       9.906
  O     -869.603     108.449      10.405
  O     -869.812     110.418      11.996
  O     -871.520     110.201      10.047
  H     -869.427     109.941      12.757
  H     -869.250     106.833       9.232
  H     -870.960     107.295       9.341
  H     -870.145     106.486      10.721
  H     -871.996     113.467       7.828
  H     -873.531     113.306       8.647
  H     -873.441     113.112       6.913

 3  4  5  6  7  8  9  10  11  12  13  24  28  29  30  31  32 0
 6-311+G(2d,p)
 ****
 33  34 0
 6-311+G(2d,p)
 ****
 1  2  14  15  16  17  18  19  20  21  22  23  25  26  27 0
 3-21G
 ****
 35  36  37  38  39  40  41  42  43  44  45 0
 3-21G
 ****


