%nproc=1
%NoSave
%Mem=1900MB
#P OB98/GEN NMR

erre ene a

0 1
  C      535.511     -80.506     121.800
  O      535.298     -81.886     122.127
  P      534.609     -82.908     121.100
  C      535.229     -83.658     118.714
  O      535.709     -83.380     120.029
  C      536.383     -83.813     117.713
  O      537.089     -82.568     117.547
  C      537.434     -84.842     118.114
  O      536.976     -86.155     117.842
  C      538.628     -84.389     117.283
  O      538.513     -84.874     115.931
  C      538.481     -82.865     117.321
  N      543.033     -80.736     118.268
  C      542.488     -81.238     117.138
  N      541.270     -81.797     116.969
  C      540.575     -81.777     118.118
  C      541.002     -81.298     119.347
  C      542.297     -80.759     119.401
  N      542.855     -80.260     120.560
  N      540.024     -81.476     120.307
  C      539.017     -82.033     119.656
  N      539.303     -82.234     118.332
  O      533.339     -82.406     120.494
  O      534.341     -84.231     121.962
  H      538.461     -85.844     115.972
  H      533.574     -84.711     121.597
  H      543.121     -81.191     116.252
  H      538.065     -82.306     120.101
  H      538.740     -82.408     116.356
  H      539.581     -84.753     117.680
  H      537.670     -84.739     119.179
  H      535.945     -84.071     116.739
  H      534.585     -82.827     118.398
  H      543.805     -79.924     120.525
  H      542.331     -80.318     121.419
  H      534.638     -84.575     118.747
  P      536.810     -87.213     119.034
  C      534.779     -87.663     120.538
  O      535.243     -87.488     119.210
  O      537.542     -86.891     120.293
  O      537.334     -88.587     118.394
  H      537.710     -89.148     119.099
  H      534.991     -88.688     120.860
  H      533.698     -87.504     120.557
  H      535.255     -86.954     121.215
  H      535.981     -80.013     122.625
  H      534.571     -80.039     121.594
  H      536.140     -80.437     120.937

 3  4  5  6  7  8  9  10  11  12  22  25  29  30  31  32 0
 6-311+G(2d,p)
 ****
 33  36  37 0
 6-311+G(2d,p)
 ****
 1  2  13  14  15  16  17  18  19  20  21  23  24  26 0
 3-21G
 ****
 27  28  34  35  38  39  40  41  42  43  44  45  46  47  48 0
 3-21G
 ****


