%nproc=1
%NoSave
%Mem=1900MB
#P OB98/GEN NMR

erre ene a

0 1
  C     -164.979     -92.079    -233.477
  O     -165.921     -93.116    -233.251
  P     -167.466     -92.706    -233.113
  C     -168.667     -92.703    -230.803
  O     -167.653     -92.138    -231.621
  C     -168.169     -93.997    -230.162
  O     -166.893     -93.786    -229.508
  C     -169.086     -94.550    -229.076
  O     -170.178     -95.280    -229.616
  C     -168.141     -95.484    -228.335
  O     -168.008     -96.728    -229.056
  C     -166.817     -94.700    -228.380
  N     -166.292     -95.036    -223.359
  C     -166.345     -96.039    -224.308
  N     -166.318     -97.308    -223.852
  N     -166.419     -95.816    -225.598
  C     -166.457     -94.492    -225.912
  C     -166.407     -93.414    -225.057
  C     -166.339     -93.679    -223.634
  O     -166.346     -92.834    -222.740
  N     -166.456     -92.233    -225.743
  C     -166.530     -92.585    -227.014
  N     -166.575     -93.949    -227.159
  O     -168.215     -94.123    -233.060
  O     -167.982     -91.837    -234.210
  H     -167.214     -97.173    -228.694
  H     -169.170     -94.002    -233.247
  H     -166.245     -95.268    -222.376
  H     -166.566     -91.899    -227.849
  H     -165.960     -95.357    -228.559
  H     -168.487     -95.734    -227.330
  H     -166.318     -97.554    -222.872
  H     -169.425     -93.760    -228.393
  H     -166.414     -98.065    -224.523
  H     -168.019     -94.739    -230.960
  H     -169.545     -92.916    -231.410
  H     -168.946     -91.980    -230.029
  P     -171.524     -95.326    -228.742
  C     -171.906     -97.786    -227.990
  O     -171.312     -96.530    -227.704
  O     -172.608     -95.890    -229.775
  O     -171.918     -94.009    -228.155
  H     -173.505     -95.586    -229.527
  H     -171.454     -98.544    -227.338
  H     -171.733     -98.075    -229.029
  H     -172.985     -97.744    -227.788
  H     -163.997     -92.498    -233.547
  H     -165.013     -91.383    -232.665
  H     -165.217     -91.574    -234.390

 3  4  5  6  7  8  9  10  11  12  23  26  30  31 0
 6-311+G(2d,p)
 ****
 33  35  36  37  38 0
 6-311+G(2d,p)
 ****
 1  2  13  14  15  16  17  18  19  20  21  22  24  25 0
 3-21G
 ****
 27  28  29  32  34  39  40  41  42  43  44  45  46  47  48  49 0
 3-21G
 ****


