%nproc=1
%NoSave
%Mem=1900MB
#P OB98/GEN NMR

erre ene a

0 1
  C     1197.270    -893.020      80.863
  O     1196.342    -892.640      81.902
  P     1195.598    -893.830      82.682
  C     1197.326    -893.710      84.651
  O     1196.695    -894.500      83.634
  C     1196.741    -894.060      86.033
  O     1196.701    -895.460      86.180
  C     1197.536    -893.500      87.173
  O     1197.282    -892.100      87.370
  C     1197.038    -894.380      88.321
  O     1195.850    -893.820      88.926
  C     1196.738    -895.730      87.615
  N     1197.701    -896.760      87.937
  C     1197.600    -897.300      89.248
  O     1196.733    -896.870      89.997
  N     1198.484    -898.270      89.625
  C     1199.424    -898.650      88.807
  N     1200.268    -899.630      89.250
  C     1199.571    -898.100      87.446
  C     1198.701    -897.160      87.084
  O     1195.371    -894.920      81.555
  O     1194.323    -893.420      83.354
  H     1196.149    -893.010      89.394
  H     1194.577    -895.480      81.744
  H     1200.362    -898.470      86.797
  H     1198.739    -896.700      86.100
  H     1195.751    -896.080      87.902
  H     1197.795    -894.470      89.126
  H     1198.614    -893.680      87.007
  H     1195.692    -893.670      86.053
  H     1200.145    -899.970      90.177
  H     1197.120    -892.650      84.408
  H     1201.001    -900.000      88.663
  H     1198.394    -893.860      84.629
  P     1198.308    -891.300      88.263
  C     1199.189    -890.020      86.222
  O     1199.513    -890.880      87.269
  O     1199.002    -892.450      89.138
  O     1197.748    -890.170      89.106
  H     1199.566    -892.030      89.833
  H     1200.114    -889.710      85.704
  H     1198.672    -889.130      86.559
  H     1198.558    -890.540      85.463
  H     1197.695    -892.141      80.425
  H     1196.754    -893.580      80.111
  H     1198.049    -893.621      81.283

 3  4  5  6  7  8  9  10  11  12  13  21  23  27  28  29  30  32 0
 6-311+G(2d,p)
 ****
 34  35 0
 6-311+G(2d,p)
 ****
 1  2  14  15  16  17  18  19  20  22  24  25  26 0
 3-21G
 ****
 31  33  36  37  38  39  40  41  42  43  44  45  46 0
 3-21G
 ****


