%nproc=1
%NoSave
%Mem=1900MB
#P OB98/GEN NMR

erre ene a

0 1
  C       -2.524      84.645     -14.583
  O       -3.477      83.729     -15.084
  H       -2.416      85.465     -15.297
  H       -1.555      84.155     -14.458
  H       -2.862      85.050     -13.625
  P       -3.698      82.386     -14.229
  C       -1.913      80.743     -13.271
  O       -2.266      81.658     -14.298
  C       -1.047      79.626     -13.843
  O       -1.805      78.819     -14.773
  C        0.171      80.107     -14.628
  O        1.239      80.536     -13.802
  C        0.514      78.833     -15.380
  O        1.137      77.895     -14.482
  C       -0.891      78.355     -15.803
  N       -1.297      78.860     -17.117
  C       -0.820      78.163     -18.233
  O       -0.096      77.179     -18.097
  N       -1.148      78.621     -19.487
  C       -1.902      79.668     -19.619
  N       -2.189      80.073     -20.885
  C       -2.436      80.424     -18.473
  C       -2.100      79.971     -17.267
  O       -4.599      81.478     -15.191
  O       -4.246      82.567     -12.855
  H        1.977      78.299     -14.199
  H       -4.673      80.565     -14.820
  H       -3.050      81.298     -18.632
  H       -2.456      80.475     -16.375
  H       -0.945      77.259     -15.819
  H        1.209      78.992     -16.204
  H       -0.099      80.883     -15.353
  H       -0.751      78.975     -13.011
  H       -1.759      79.569     -21.650
  H       -2.834      80.327     -12.849
  H       -2.639      80.956     -21.090
  H       -1.361      81.260     -12.481
  P        1.929      81.941     -14.163
  C        3.719      82.739     -15.879
  O        2.890      81.678     -15.418
  O        2.949      82.167     -12.955
  O        0.978      83.088     -14.317
  H        3.032      83.117     -12.739
  H        4.295      82.404     -16.716
  H        4.378      83.044     -15.093
  H        3.108      83.566     -16.174

 6  7  8  9  10  11  12  13  14  15  16  26  30  31  32  33  35 0
 6-311+G(2d,p)
 ****
 37  38 0
 6-311+G(2d,p)
 ****
 1  2  3  4  5  17  18  19  20  21  22  23  24  25 0
 3-21G
 ****
 27  28  29  34  36  39  40  41  42  43  44  45  46 0
 3-21G
 ****


