%nproc=1
%NoSave
%Mem=1900MB
#P OB98/GEN NMR

erre ene a

0 1
  C      423.270     434.699    1922.446
  O      424.570     435.226    1922.325
  H      423.275     433.942    1923.245
  H      422.959     434.210    1921.521
  H      422.555     435.481    1922.709
  P      424.853     436.315    1921.167
  C      424.123     438.295    1922.679
  O      423.903     437.563    1921.468
  C      423.194     439.488    1922.760
  O      423.355     440.278    1921.546
  C      421.692     439.090    1922.880
  O      421.041     439.698    1924.007
  C      421.175     439.355    1921.488
  O      419.763     439.602    1921.437
  C      422.039     440.508    1920.976
  N      422.133     440.582    1919.519
  C      421.089     441.218    1918.839
  O      420.087     441.720    1919.387
  N      421.213     441.267    1917.489
  C      422.247     440.739    1916.713
  O      422.280     440.817    1915.533
  C      423.289     440.055    1917.506
  C      423.204     440.004    1918.852
  O      424.780     435.791    1919.770
  O      426.313     436.878    1921.520
  H      419.583     440.346    1922.029
  H      426.956     436.503    1920.895
  H      420.489     441.744    1917.013
  H      424.122     439.638    1916.960
  H      423.980     439.513    1919.429
  H      421.686     441.458    1921.344
  H      421.347     438.454    1920.863
  H      421.616     438.020    1923.096
  H      423.502     440.116    1923.624
  H      425.176     438.618    1922.677
  H      423.962     437.629    1923.525
  P      420.616     438.928    1925.338
  C      421.893     440.422    1927.112
  O      421.762     439.185    1926.436
  O      420.117     437.529    1925.188
  O      419.392     439.842    1925.887
  H      418.794     439.217    1926.353
  H      422.716     440.371    1927.793
  H      420.994     440.629    1927.654
  H      422.068     441.201    1926.400

 6  7  8  9  10  11  12  13  14  15  16  26  31  32  33  34  35 0
 6-311+G(2d,p)
 ****
 36  37 0
 6-311+G(2d,p)
 ****
 1  2  3  4  5  17  18  19  20  21  22  23  24  25 0
 3-21G
 ****
 27  28  29  30  38  39  40  41  42  43  44  45 0
 3-21G
 ****


