%nproc=1
%NoSave
%Mem=1900MB
#P OB98/GEN NMR

erre ene a

0 1
  C      318.698    -326.253      46.183
  O      319.429    -327.460      46.125
  H      319.390    -325.414      46.041
  H      318.203    -326.135      47.152
  H      317.952    -326.223      45.379
  P      318.683    -328.814      46.559
  C      317.141    -329.198      48.598
  O      318.376    -328.652      48.128
  C      317.083    -329.181      50.129
  O      317.093    -327.822      50.612
  C      315.817    -329.798      50.702
  O      315.726    -331.197      50.530
  C      315.765    -329.205      52.106
  O      316.520    -329.942      53.059
  C      316.413    -327.816      51.885
  N      315.436    -326.734      51.975
  C      314.791    -326.602      53.201
  O      314.987    -327.346      54.159
  N      313.857    -325.599      53.278
  C      313.487    -324.773      52.253
  O      312.614    -323.922      52.376
  C      314.185    -324.980      50.975
  C      315.115    -325.933      50.892
  O      319.391    -330.088      46.211
  O      317.235    -328.682      45.891
  H      316.157    -330.846      53.077
  H      316.776    -329.555      45.858
  H      313.384    -325.481      54.159
  H      313.912    -324.344      50.140
  H      315.645    -326.109      49.957
  H      317.181    -327.633      52.648
  H      314.738    -329.150      52.480
  H      314.956    -329.374      50.157
  H      317.977    -329.683      50.515
  H      317.080    -330.233      48.248
  H      316.307    -328.629      48.177
  P      314.348    -332.002      50.600
  C      312.546    -332.200      52.457
  O      313.927    -332.158      52.145
  O      314.219    -333.189      49.700
  O      313.304    -330.885      50.073
  H      312.603    -331.348      49.574
  H      312.422    -332.305      53.515
  H      312.093    -333.033      51.960
  H      312.079    -331.294      52.132

 6  7  8  9  10  11  12  13  14  15  16  26  31  32  33  34  35 0
 6-311+G(2d,p)
 ****
 36  37 0
 6-311+G(2d,p)
 ****
 1  2  3  4  5  17  18  19  20  21  22  23  24  25 0
 3-21G
 ****
 27  28  29  30  38  39  40  41  42  43  44  45 0
 3-21G
 ****


