%nproc=1
%NoSave
%Mem=1900MB
#P OB98/GEN NMR

erre ene a

0 1
  C        4.651     -62.023     862.822
  O        4.137     -63.340     862.792
  P        3.465     -64.000     864.090
  C        4.311     -64.620     866.459
  O        4.644     -64.093     865.181
  C        5.560     -65.189     867.116
  O        6.652     -64.264     866.999
  C        5.418     -65.487     868.609
  O        4.671     -66.671     868.828
  C        6.876     -65.542     869.037
  O        7.441     -66.821     868.710
  C        7.510     -64.451     868.158
  N        7.710     -63.193     868.872
  C        8.895     -63.048     869.574
  O        9.742     -63.941     869.599
  N        9.138     -61.866     870.253
  C        8.254     -60.925     870.231
  N        8.564     -59.761     870.855
  C        6.947     -61.043     869.549
  C        6.743     -62.198     868.898
  O        2.740     -65.277     863.855
  O        2.527     -62.845     864.699
  H        7.036     -67.477     869.294
  H        1.615     -62.839     864.315
  H        6.233     -60.230     869.578
  H        5.833     -62.344     868.338
  H        8.472     -64.771     867.769
  H        7.021     -65.379     870.106
  H        4.921     -64.645     869.105
  H        5.843     -66.114     866.576
  H        9.528     -59.646     871.166
  H        3.577     -65.419     866.331
  H        8.069     -58.891     870.655
  H        3.880     -63.817     867.070
  P        3.999     -66.882     870.279
  C        4.891     -67.593     872.604
  O        5.220     -67.216     871.268
  O        3.199     -68.254     870.117
  O        3.116     -65.751     870.709
  H        2.249     -68.076     870.000
  H        5.795     -68.029     873.054
  H        4.097     -68.354     872.605
  H        4.592     -66.713     873.175
  H        5.053     -61.775     861.862
  H        5.424     -61.958     863.559
  H        3.866     -61.339     863.068

 3  4  5  6  7  8  9  10  11  12  13  23  27  28  29  30  32 0
 6-311+G(2d,p)
 ****
 34  35 0
 6-311+G(2d,p)
 ****
 1  2  14  15  16  17  18  19  20  21  22  24  25  26 0
 3-21G
 ****
 31  33  36  37  38  39  40  41  42  43  44  45  46 0
 3-21G
 ****


