%nproc=1
%NoSave
%Mem=1900MB
#P OB98/GEN NMR

erre ene a

0 1
  C      506.289     542.206     224.112
  O      506.854     543.358     224.704
  H      505.220     542.184     224.336
  H      506.752     541.309     224.528
  H      506.423     542.223     223.026
  P      508.366     543.721     224.312
  C      507.491     545.900     223.195
  O      508.284     544.729     223.065
  C      506.993     546.350     221.825
  O      508.148     546.608     220.973
  C      506.118     545.314     221.101
  O      505.107     546.010     220.370
  C      507.085     544.669     220.125
  O      506.453     544.061     219.007
  C      507.960     545.868     219.750
  N      509.246     545.472     219.176
  C      509.315     545.353     217.792
  O      508.408     545.643     217.014
  N      510.505     544.878     217.299
  C      511.585     544.498     218.039
  O      512.617     544.057     217.539
  C      511.446     544.633     219.495
  C      510.300     545.101     219.990
  O      508.901     542.362     223.656
  O      509.226     544.193     225.435
  H      509.293     541.787     224.338
  H      505.848     544.725     218.618
  H      510.572     544.790     216.297
  H      512.282     544.328     220.108
  H      510.153     545.194     221.060
  H      507.429     546.522     219.050
  H      507.676     543.901     220.639
  H      505.653     544.580     221.769
  H      506.460     547.300     221.935
  H      508.095     546.697     223.636
  H      506.642     545.688     223.857
  P      503.663     546.150     221.062
  C      503.412     548.639     220.275
  O      503.480     547.719     221.352
  O      503.943     545.508     222.498
  O      502.571     545.503     220.274
  H      504.839     545.690     222.827
  H      503.290     549.630     220.660
  H      502.579     548.394     219.649
  H      504.315     548.587     219.704

 6  7  8  9  10  11  12  13  14  15  16  27  31  32  33  34  35 0
 6-311+G(2d,p)
 ****
 36  37 0
 6-311+G(2d,p)
 ****
 1  2  3  4  5  17  18  19  20  21  22  23  24  25 0
 3-21G
 ****
 26  28  29  30  38  39  40  41  42  43  44  45 0
 3-21G
 ****


