%nproc=1
%NoSave
%Mem=1900MB
#P OB98/GEN NMR

erre ene a

0 1
  C       70.151    -380.635    -594.563
  O       71.335    -381.403    -594.625
  H       70.081    -380.014    -595.466
  H       70.164    -379.981    -593.689
  H       69.274    -381.289    -594.516
  P       71.670    -382.300    -593.335
  C       71.620    -384.604    -594.571
  O       72.410    -383.589    -593.956
  C       72.523    -385.753    -595.014
  O       73.469    -385.309    -596.000
  C       73.353    -386.364    -593.895
  O       72.606    -387.249    -593.072
  C       74.420    -387.093    -594.698
  O       73.848    -388.305    -595.247
  C       74.704    -386.062    -595.810
  N       75.810    -385.163    -595.480
  C       77.107    -385.656    -595.705
  O       77.281    -386.792    -596.148
  N       78.176    -384.852    -595.390
  C       77.978    -383.661    -594.907
  N       79.086    -382.914    -594.591
  C       76.634    -383.104    -594.677
  C       75.605    -383.890    -594.980
  O       70.242    -382.894    -592.903
  O       72.413    -381.615    -592.232
  H       74.528    -388.706    -595.820
  H       70.362    -383.569    -592.189
  H       76.530    -382.098    -594.255
  H       74.596    -383.552    -594.835
  H       74.931    -386.557    -596.762
  H       75.280    -387.388    -594.106
  H       73.842    -385.592    -593.287
  H       71.885    -386.518    -595.503
  H       79.987    -383.355    -594.713
  H       71.108    -384.168    -595.438
  H       79.034    -382.057    -594.053
  H       70.872    -384.977    -593.868
  P       73.170    -387.547    -591.588
  C       71.387    -386.387    -590.092
  O       71.901    -387.605    -590.607
  O       73.881    -386.164    -591.181
  O       74.104    -388.708    -591.490
  H       74.703    -386.315    -590.696
  H       70.549    -386.593    -589.460
  H       71.078    -385.760    -590.902
  H       72.147    -385.890    -589.526

 6  7  8  9  10  11  12  13  14  15  16  26  30  31  32  33  35 0
 6-311+G(2d,p)
 ****
 37  38 0
 6-311+G(2d,p)
 ****
 1  2  3  4  5  17  18  19  20  21  22  23  24  25 0
 3-21G
 ****
 27  28  29  34  36  39  40  41  42  43  44  45  46 0
 3-21G
 ****


