%nproc=1
%NoSave
%Mem=1900MB
#P OB98/GEN NMR

erre ene a

0 1
  C      577.294     -12.476    -145.600
  O      577.440     -12.702    -146.990
  H      578.008     -13.108    -145.063
  H      576.282     -12.734    -145.280
  H      577.506     -11.427    -145.363
  P      576.458     -11.879    -147.954
  C      576.735     -13.875    -149.591
  O      575.844     -12.949    -148.982
  C      576.122     -15.273    -149.597
  O      576.015     -15.786    -148.251
  C      574.729     -15.354    -150.208
  O      574.793     -15.435    -151.620
  C      574.197     -16.628    -149.569
  O      574.680     -17.802    -150.252
  C      574.774     -16.544    -148.150
  N      570.624     -17.203    -145.345
  C      571.289     -18.080    -146.178
  N      570.730     -19.301    -146.325
  N      572.393     -17.786    -146.817
  C      572.811     -16.518    -146.599
  C      572.252     -15.557    -145.786
  C      571.050     -15.908    -145.061
  O      570.449     -15.194    -144.260
  N      572.978     -14.397    -145.812
  C      573.957     -14.642    -146.667
  N      573.889     -15.911    -147.186
  O      577.461     -11.030    -148.872
  O      575.470     -11.001    -147.263
  H      574.247     -17.869    -151.119
  H      577.030     -10.191    -149.125
  H      569.792     -17.490    -144.870
  H      574.732     -13.939    -146.944
  H      575.028     -17.530    -147.747
  H      573.106     -16.671    -149.606
  H      569.751     -19.463    -146.137
  H      574.116     -14.500    -149.889
  H      571.199     -19.947    -146.948
  H      576.819     -15.933    -150.139
  H      577.671     -13.893    -149.025
  H      576.943     -13.550    -150.618
  P      573.408     -15.551    -152.425
  C      574.715     -16.861    -154.256
  O      573.570     -16.807    -153.420
  O      573.442     -14.297    -153.413
  O      572.186     -15.565    -151.566
  H      572.548     -14.113    -153.751
  H      574.679     -17.748    -154.854
  H      575.598     -16.874    -153.651
  H      574.732     -16.002    -154.893

 6  7  8  9  10  11  12  13  14  15  26  29  33  34 0
 6-311+G(2d,p)
 ****
 36  38  39  40  41 0
 6-311+G(2d,p)
 ****
 1  2  3  4  5  16  17  18  19  20  21  22  23  24  25 0
 3-21G
 ****
 27  28  30  31  32  35  37  42  43  44  45  46  47 0
 3-21G
 ****
 48  49 0
 3-21G
 ****


