%nproc=1
%NoSave
%Mem=1900MB
#P OB98/GEN NMR

erre ene a

0 1
  C       36.475     197.632    -153.330
  O       37.421     197.725    -152.283
  H       36.915     197.056    -154.150
  H       36.207     198.624    -153.703
  H       35.578     197.114    -152.979
  P       37.115     198.735    -151.075
  C       38.905     197.483    -149.698
  O       38.445     198.745    -150.176
  C       40.286     197.608    -149.050
  O       40.273     198.645    -148.049
  C       40.736     196.355    -148.316
  O       41.031     195.264    -149.168
  C       41.807     196.889    -147.380
  O       43.097     196.970    -147.980
  C       41.284     198.316    -147.077
  N       40.789     198.435    -145.709
  C       41.720     198.213    -144.707
  O       42.896     197.911    -144.917
  N       41.252     198.309    -143.423
  C       39.958     198.548    -143.062
  O       39.591     198.583    -141.890
  C       39.011     198.749    -144.167
  C       39.460     198.684    -145.423
  O       35.861     198.462    -150.300
  O       37.137     200.175    -151.770
  H       43.256     196.122    -148.438
  H       36.706     200.857    -151.196
  H       41.917     198.165    -142.679
  H       37.976     198.937    -143.917
  H       38.777     198.826    -146.260
  H       42.092     199.047    -147.205
  H       41.910     196.265    -146.489
  H       39.907     196.021    -147.677
  H       41.006     197.897    -149.825
  H       38.970     196.807    -150.557
  H       38.178     197.076    -148.983
  P       40.841     193.739    -148.732
  C       40.332     192.527    -150.979
  O       41.291     192.807    -149.969
  O       39.586     193.401    -147.999
  O       42.069     193.549    -147.698
  H       41.773     192.930    -147.007
  H       40.774     191.902    -151.727
  H       40.007     193.443    -151.426
  H       39.493     192.025    -150.545

 6  7  8  9  10  11  12  13  14  15  16  26  31  32  33  34  35 0
 6-311+G(2d,p)
 ****
 36  37 0
 6-311+G(2d,p)
 ****
 1  2  3  4  5  17  18  19  20  21  22  23  24  25 0
 3-21G
 ****
 27  28  29  30  38  39  40  41  42  43  44  45 0
 3-21G
 ****


