%nproc=1
%NoSave
%Mem=1900MB
#P OB98/GEN NMR

erre ene a

0 1
  C      -68.965     662.958     -61.086
  O      -68.296     662.466     -59.944
  H      -68.656     663.992     -61.259
  H      -70.044     662.935     -60.928
  H      -68.708     662.360     -61.969
  P      -68.451     660.900     -59.631
  C      -65.949     660.896     -58.947
  O      -67.275     660.520     -58.609
  C      -65.043     660.800     -57.719
  O      -65.047     659.454     -57.199
  C      -63.584     661.154     -57.988
  O      -63.367     662.560     -57.968
  C      -62.914     660.476     -56.805
  O      -63.101     661.270     -55.617
  C      -63.711     659.167     -56.699
  N      -59.884     655.859     -56.995
  C      -60.118     656.863     -56.072
  N      -59.200     657.012     -55.095
  N      -61.158     657.655     -56.113
  C      -61.992     657.395     -57.150
  C      -61.862     656.427     -58.123
  C      -60.712     655.554     -58.067
  O      -60.469     654.640     -58.838
  N      -62.910     656.465     -59.002
  C      -63.657     657.465     -58.577
  N      -63.139     658.066     -57.459
  O      -67.987     660.204     -60.999
  O      -69.819     660.456     -59.238
  H      -63.024     662.206     -55.885
  H      -68.530     659.403     -61.145
  H      -59.057     655.288     -56.928
  H      -64.582     657.790     -59.042
  H      -63.812     658.822     -55.665
  H      -61.839     660.354     -56.945
  H      -58.350     656.473     -55.038
  H      -63.225     660.698     -58.919
  H      -59.368     657.720     -54.390
  H      -65.466     661.452     -56.942
  H      -65.950     661.929     -59.313
  H      -65.580     660.231     -59.738
  P      -63.130     663.293     -59.374
  C      -64.759     665.120     -58.506
  O      -63.515     664.833     -59.127
  O      -64.335     662.751     -60.274
  O      -61.799     663.040     -60.004
  H      -64.106     662.826     -61.223
  H      -64.874     666.179     -58.410
  H      -64.786     664.669     -57.536
  H      -65.555     664.728     -59.104

 6  7  8  9  10  11  12  13  14  15  26  29  33  34 0
 6-311+G(2d,p)
 ****
 36  38  39  40  41 0
 6-311+G(2d,p)
 ****
 1  2  3  4  5  16  17  18  19  20  21  22  23  24  25 0
 3-21G
 ****
 27  28  30  31  32  35  37  42  43  44  45  46  47 0
 3-21G
 ****
 48  49 0
 3-21G
 ****


