%nproc=1
%NoSave
%Mem=1900MB
#P OB98/GEN NMR

erre ene a

0 1
  C       82.645    -354.584    -171.881
  O       82.226    -353.746    -170.824
  H       83.500    -354.123    -172.380
  H       81.832    -354.689    -172.604
  H       82.940    -355.568    -171.508
  P       81.259    -354.387    -169.716
  C       82.943    -353.688    -167.869
  O       81.601    -353.653    -168.328
  C       82.997    -353.475    -166.357
  O       82.140    -352.342    -166.017
  C       82.520    -354.684    -165.535
  O       83.318    -354.777    -164.346
  C       81.114    -354.281    -165.130
  O       80.669    -354.966    -163.965
  C       81.293    -352.779    -164.941
  N       77.964    -350.543    -161.922
  C       79.249    -350.975    -161.674
  N       79.707    -350.850    -160.410
  N       80.027    -351.493    -162.590
  C       79.452    -351.543    -163.816
  C       78.189    -351.156    -164.189
  C       77.332    -350.599    -163.163
  O       76.176    -350.219    -163.317
  N       77.963    -351.429    -165.516
  C       79.081    -352.000    -165.933
  N       80.013    -352.092    -164.936
  O       81.870    -355.855    -169.526
  O       79.813    -354.427    -170.078
  H       81.310    -354.792    -163.245
  H       81.390    -356.487    -170.093
  H       77.401    -350.167    -161.178
  H       79.255    -352.378    -166.930
  H       81.788    -352.533    -163.990
  H       80.414    -354.495    -165.947
  H       79.181    -350.432    -159.659
  H       82.554    -355.632    -166.078
  H       80.666    -351.123    -160.223
  H       84.021    -353.195    -166.078
  H       83.512    -352.892    -168.363
  H       83.390    -354.652    -168.133
  P       84.210    -356.091    -164.138
  C       86.185    -354.775    -163.069
  O       85.238    -355.829    -162.937
  O       85.151    -356.099    -165.433
  O       83.415    -357.352    -164.035
  H       85.325    -357.018    -165.712
  H       86.794    -354.730    -162.190
  H       85.669    -353.846    -163.194
  H       86.804    -354.957    -163.923

 6  7  8  9  10  11  12  13  14  15  26  29  33  34 0
 6-311+G(2d,p)
 ****
 36  38  39  40  41 0
 6-311+G(2d,p)
 ****
 1  2  3  4  5  16  17  18  19  20  21  22  23  24  25 0
 3-21G
 ****
 27  28  30  31  32  35  37  42  43  44  45  46  47 0
 3-21G
 ****
 48  49 0
 3-21G
 ****


