%nproc=1
%NoSave
%Mem=1900MB
#P OB98/GEN NMR

erre ene a

0 1
  C      -41.116     -22.932     -26.581
  O      -42.027     -23.215     -27.630
  P      -42.231     -22.180     -28.837
  C      -44.795     -22.075     -28.678
  O      -43.679     -22.485     -29.460
  C      -46.096     -22.599     -29.282
  O      -47.209     -22.079     -28.516
  C      -46.304     -22.180     -30.733
  O      -46.951     -23.245     -31.434
  C      -47.267     -21.009     -30.652
  O      -48.022     -20.870     -31.867
  C      -48.091     -21.381     -29.415
  N      -50.702     -16.991     -29.928
  C      -50.362     -17.943     -30.823
  N      -49.645     -19.071     -30.624
  C      -49.317     -19.197     -29.328
  C      -49.597     -18.311     -28.299
  C      -50.323     -17.157     -28.639
  N      -50.679     -16.193     -27.721
  N      -49.069     -18.765     -27.106
  C      -48.501     -19.911     -27.408
  N      -48.633     -20.221     -28.736
  O      -41.124     -22.144     -29.831
  O      -42.436     -20.766     -28.122
  H      -48.529     -21.700     -31.987
  H      -41.997     -20.060     -28.634
  H      -50.709     -17.776     -31.839
  H      -47.975     -20.546     -26.711
  H      -48.919     -22.054     -29.670
  H      -46.705     -20.081     -30.497
  H      -45.369     -21.914     -31.238
  H      -46.113     -23.691     -29.186
  H      -44.821     -20.982     -28.662
  H      -51.302     -15.465     -28.032
  H      -50.550     -16.399     -26.740
  H      -44.672     -22.435     -27.652
  P      -46.276     -23.681     -32.830
  C      -48.031     -22.412     -34.275
  O      -47.478     -23.649     -33.889
  O      -45.507     -24.955     -32.708
  O      -45.388     -22.390     -33.161
  H      -45.747     -21.585     -32.728
  H      -48.857     -22.599     -34.967
  H      -47.280     -21.806     -34.788
  H      -48.414     -21.874     -33.403
  H      -41.122     -23.737     -25.877
  H      -41.407     -22.027     -26.090
  H      -40.132     -22.818     -26.985

 3  4  5  6  7  8  9  10  11  12  22  25  29  30  31  32 0
 6-311+G(2d,p)
 ****
 33  36  37 0
 6-311+G(2d,p)
 ****
 1  2  13  14  15  16  17  18  19  20  21  23  24  26 0
 3-21G
 ****
 27  28  34  35  38  39  40  41  42  43  44  45  46  47  48 0
 3-21G
 ****


