%nproc=1
%NoSave
%Mem=1900MB
#P OB98/GEN NMR

erre ene a

0 1
  C     -118.150     226.746     265.247
  O     -117.120     226.724     264.278
  H     -118.501     225.724     265.410
  H     -118.988     227.355     264.894
  H     -117.770     227.146     266.192
  P     -116.499     228.140     263.846
  C     -118.206     229.160     262.173
  O     -117.005     228.422     262.349
  C     -118.464     229.367     260.682
  O     -119.619     230.220     260.498
  C     -117.325     230.054     259.945
  O     -116.259     229.172     259.654
  C     -118.047     230.543     258.696
  O     -118.129     229.511     257.698
  C     -119.450     230.903     259.239
  N     -119.634     232.345     259.368
  C     -119.812     233.042     258.174
  O     -119.813     232.496     257.071
  N     -119.950     234.400     258.289
  C     -119.889     235.112     259.451
  O     -119.945     236.341     259.474
  C     -119.713     234.328     260.684
  C     -119.585     232.999     260.587
  O     -114.941     227.812     263.670
  O     -116.739     229.254     264.809
  H     -114.444     228.142     264.440
  H     -118.687     229.870     256.981
  H     -120.068     234.920     257.434
  H     -119.669     234.864     261.623
  H     -119.435     232.401     261.481
  H     -120.230     230.524     258.566
  H     -117.528     231.386     258.234
  H     -116.975     230.929     260.512
  H     -118.684     228.389     260.229
  H     -118.110     230.140     262.658
  H     -119.034     228.614     262.641
  P     -114.757     229.726     259.755
  C     -114.488     230.342     257.211
  O     -114.094     229.527     258.304
  O     -114.071     228.596     260.653
  O     -114.663     231.111     260.302
  H     -114.415     227.702     260.467
  H     -113.938     230.059     256.338
  H     -114.289     231.368     257.441
  H     -115.535     230.214     257.030

 6  7  8  9  10  11  12  13  14  15  16  27  31  32  33  34  35 0
 6-311+G(2d,p)
 ****
 36  37 0
 6-311+G(2d,p)
 ****
 1  2  3  4  5  17  18  19  20  21  22  23  24  25 0
 3-21G
 ****
 26  28  29  30  38  39  40  41  42  43  44  45 0
 3-21G
 ****


