%nproc=1
%NoSave
%Mem=1900MB
#P OB98/GEN NMR

erre ene a

0 1
  C     -273.678    -257.735    -150.395
  O     -274.731    -257.749    -149.456
  H     -272.783    -258.144    -149.921
  H     -273.466    -256.712    -150.717
  H     -273.931    -258.355    -151.261
  P     -276.152    -257.139    -149.878
  C     -277.777    -258.854    -148.836
  O     -277.196    -257.556    -148.734
  C     -277.060    -259.828    -147.894
  O     -277.224    -259.337    -146.541
  C     -277.640    -261.249    -147.968
  O     -276.648    -262.243    -148.205
  C     -278.468    -261.353    -146.691
  O     -278.638    -262.671    -146.212
  C     -277.741    -260.408    -145.728
  N     -278.592    -259.880    -144.665
  C     -278.253    -260.207    -143.354
  O     -277.290    -260.892    -143.022
  N     -279.081    -259.701    -142.384
  C     -280.191    -258.935    -142.591
  O     -280.894    -258.508    -141.683
  C     -280.513    -258.648    -143.999
  C     -279.713    -259.126    -144.953
  O     -276.596    -257.445    -151.270
  O     -275.981    -255.563    -149.650
  H     -279.405    -262.659    -145.602
  H     -275.885    -255.116    -150.513
  H     -278.839    -259.917    -141.430
  H     -281.393    -258.055    -144.201
  H     -279.920    -258.933    -146.004
  H     -276.898    -260.914    -145.256
  H     -279.467    -260.950    -146.896
  H     -278.310    -261.352    -148.832
  H     -275.989    -259.818    -148.122
  H     -277.677    -259.185    -149.874
  H     -278.840    -258.801    -148.577
  P     -276.172    -262.739    -149.645
  C     -273.778    -263.761    -149.249
  O     -275.170    -263.970    -149.452
  O     -275.750    -261.671    -150.596
  O     -277.486    -263.444    -150.258
  H     -277.447    -263.300    -151.228
  H     -273.287    -264.706    -149.143
  H     -273.630    -263.181    -148.362
  H     -273.369    -263.239    -150.089

 6  7  8  9  10  11  12  13  14  15  16  26  31  32  33  34  35 0
 6-311+G(2d,p)
 ****
 36  37 0
 6-311+G(2d,p)
 ****
 1  2  3  4  5  17  18  19  20  21  22  23  24  25 0
 3-21G
 ****
 27  28  29  30  38  39  40  41  42  43  44  45 0
 3-21G
 ****


