%nproc=1
%NoSave
%Mem=1900MB
#P OB98/GEN NMR

erre ene a

0 1
  C      562.534     215.437     839.199
  O      561.961     216.598     838.623
  H      562.613     214.668     838.429
  H      561.907     215.068     840.012
  H      563.536     215.668     839.577
  P      561.660     217.819     839.621
  C      559.154     217.181     839.967
  O      560.452     217.271     840.534
  C      558.101     217.598     840.997
  O      558.173     216.753     842.165
  C      558.274     219.024     841.524
  O      557.817     220.011     840.622
  C      557.411     218.946     842.764
  O      556.016     218.965     842.391
  C      557.816     217.558     843.319
  N      558.932     217.637     844.264
  C      558.672     218.261     845.485
  O      557.562     218.737     845.738
  N      559.695     218.385     846.403
  C      560.871     217.894     846.130
  N      561.843     218.041     847.062
  C      561.176     217.208     844.861
  C      560.178     217.117     843.987
  O      560.924     218.891     838.685
  O      562.826     218.352     840.377
  H      555.509     218.713     843.192
  H      560.562     219.627     839.233
  H      562.176     216.826     844.674
  H      560.330     216.621     843.034
  H      556.966     217.072     843.815
  H      557.559     219.776     843.457
  H      559.307     219.225     841.826
  H      557.116     217.455     840.543
  H      561.612     218.573     847.906
  H      558.983     216.138     839.662
  H      562.814     217.836     846.887
  H      559.077     217.828     839.084
  P      558.757     221.296     840.386
  C      557.164     222.717     841.890
  O      558.503     222.287     841.614
  O      558.061     222.046     839.157
  O      560.187     220.973     840.110
  H      558.729     222.478     838.592
  H      557.167     223.371     842.737
  H      556.552     221.865     842.100
  H      556.774     223.236     841.040

 6  7  8  9  10  11  12  13  14  15  16  26  30  31  32  33  35 0
 6-311+G(2d,p)
 ****
 37  38 0
 6-311+G(2d,p)
 ****
 1  2  3  4  5  17  18  19  20  21  22  23  24  25 0
 3-21G
 ****
 27  28  29  34  36  39  40  41  42  43  44  45  46 0
 3-21G
 ****


