%nproc=1
%NoSave
%Mem=1900MB
#P OB98/GEN NMR

erre ene a

0 1
  C      -42.705      71.949    -371.779
  O      -41.295      71.869    -371.965
  P      -40.571      73.104    -372.696
  C      -40.401      71.903    -374.996
  O      -40.968      72.977    -374.250
  C      -39.919      72.401    -376.360
  O      -40.978      73.098    -377.040
  C      -38.754      73.378    -376.302
  O      -37.499      72.709    -376.158
  C      -38.855      74.027    -377.671
  O      -38.282      73.159    -378.671
  C      -40.373      74.131    -377.862
  N      -42.951      78.219    -379.539
  C      -42.501      77.115    -380.176
  N      -41.815      76.076    -379.664
  C      -41.558      76.274    -378.354
  C      -41.921      77.365    -377.583
  C      -42.657      78.374    -378.222
  N      -43.132      79.492    -377.567
  N      -41.479      77.211    -376.288
  C      -40.872      76.038    -376.273
  N      -40.907      75.430    -377.494
  O      -39.022      72.677    -372.675
  O      -40.800      74.434    -372.062
  H      -38.691      72.277    -378.550
  H      -38.461      73.472    -372.743
  H      -42.740      77.062    -381.233
  H      -40.409      75.599    -375.404
  H      -40.675      73.932    -378.902
  H      -38.315      74.975    -377.730
  H      -38.906      74.135    -375.516
  H      -39.659      71.515    -376.965
  H      -41.160      71.135    -375.146
  H      -43.805      80.070    -378.051
  H      -43.088      79.500    -376.559
  H      -39.568      71.472    -374.431
  P      -36.390      73.460    -375.269
  C      -34.865      74.034    -377.301
  O      -35.692      74.512    -376.253
  O      -35.279      72.322    -375.056
  O      -36.904      73.999    -373.975
  H      -34.768      72.491    -374.244
  H      -34.735      74.825    -378.035
  H      -35.319      73.161    -377.794
  H      -33.887      73.757    -376.897
  H      -43.050      71.066    -371.284
  H      -43.186      72.035    -372.731
  H      -42.938      72.806    -371.183

 3  4  5  6  7  8  9  10  11  12  22  25  29  30  31  32 0
 6-311+G(2d,p)
 ****
 33  36  37 0
 6-311+G(2d,p)
 ****
 1  2  13  14  15  16  17  18  19  20  21  23  24  26 0
 3-21G
 ****
 27  28  34  35  38  39  40  41  42  43  44  45  46  47  48 0
 3-21G
 ****


