%nproc=1
%NoSave
%Mem=1900MB
#P OB98/GEN NMR

erre ene a

0 1
  C      148.083    -186.459      32.235
  O      148.777    -187.600      31.713
  P      147.912    -188.888      31.310
  C      147.441    -188.370      28.806
  O      146.920    -188.468      30.124
  C      147.102    -189.634      28.006
  O      145.681    -189.897      28.002
  C      147.517    -189.557      26.542
  O      148.888    -189.882      26.366
  C      146.646    -190.646      25.937
  O      147.238    -191.939      26.180
  C      145.340    -190.498      26.727
  N      142.298    -190.176      22.699
  C      143.162    -191.182      23.083
  N      143.219    -192.266      22.278
  N      143.905    -191.131      24.159
  C      143.731    -189.995      24.874
  C      142.908    -188.926      24.595
  C      142.105    -188.990      23.397
  O      141.331    -188.123      22.997
  N      143.011    -187.955      25.554
  C      143.879    -188.438      26.424
  N      144.358    -189.669      26.046
  O      146.918    -189.052      32.558
  O      148.717    -190.122      31.082
  H      146.541    -192.602      26.011
  H      146.661    -189.985      32.656
  H      141.756    -190.265      21.858
  H      144.189    -187.941      27.333
  H      144.862    -191.461      26.933
  H      146.546    -190.545      24.851
  H      142.639    -192.393      21.466
  H      147.259    -188.584      26.106
  H      143.821    -193.029      22.562
  H      147.612    -190.484      28.482
  H      148.524    -188.230      28.834
  H      147.035    -187.474      28.329
  P      149.609    -189.381      25.022
  C      151.565    -188.022      26.059
  O      150.318    -187.994      25.392
  O      148.374    -188.953      24.098
  O      150.468    -190.400      24.359
  H      148.593    -189.101      23.158
  H      151.972    -187.009      26.083
  H      152.269    -188.674      25.535
  H      151.431    -188.372      27.086
  H      148.787    -185.684      32.457
  H      147.564    -186.736      33.129
  H      147.381    -186.106      31.509

 3  4  5  6  7  8  9  10  11  12  23  26  30  31 0
 6-311+G(2d,p)
 ****
 33  35  36  37  38 0
 6-311+G(2d,p)
 ****
 1  2  13  14  15  16  17  18  19  20  21  22  24  25 0
 3-21G
 ****
 27  28  29  32  34  39  40  41  42  43  44  45  46  47  48  49 0
 3-21G
 ****


