%nproc=1
%NoSave
%Mem=1900MB
#P OB98/GEN NMR

erre ene a

0 1
  C       17.619     164.546    -132.585
  O       17.364     165.294    -133.758
  H       17.659     165.229    -131.733
  H       18.583     164.037    -132.672
  H       16.826     163.812    -132.415
  P       17.032     164.475    -135.095
  C       16.621     165.119    -137.582
  O       17.075     165.537    -136.302
  C       16.696     166.285    -138.568
  O       15.675     167.260    -138.211
  C       18.047     167.015    -138.569
  O       18.335     167.428    -139.910
  C       17.776     168.241    -137.718
  O       18.658     169.326    -137.969
  C       16.323     168.543    -138.103
  N       15.647     169.394    -137.124
  C       14.990     170.521    -137.602
  O       14.862     170.808    -138.792
  N       14.457     171.346    -136.644
  C       14.539     171.167    -135.294
  O       14.061     171.954    -134.483
  C       15.255     169.965    -134.849
  C       15.770     169.145    -135.770
  O       15.474     164.150    -134.941
  O       17.853     163.250    -135.318
  H       15.346     163.301    -134.478
  H       18.468     170.017    -137.302
  H       13.978     172.167    -136.973
  H       15.349     169.797    -133.783
  H       16.323     168.260    -135.476
  H       16.281     169.015    -139.090
  H       17.851     167.982    -136.656
  H       18.879     166.419    -138.179
  H       16.451     165.914    -139.569
  H       15.582     164.782    -137.507
  H       17.240     164.284    -137.929
  P       19.360     166.527    -140.757
  C       19.814     166.462    -143.337
  O       19.468     167.230    -142.193
  O       18.477     165.221    -141.018
  O       20.652     166.291    -140.047
  H       17.533     165.415    -141.144
  H       19.837     167.096    -144.199
  H       19.087     165.690    -143.482
  H       20.778     166.021    -143.192

 6  7  8  9  10  11  12  13  14  15  16  27  31  32  33  34  35 0
 6-311+G(2d,p)
 ****
 36  37 0
 6-311+G(2d,p)
 ****
 1  2  3  4  5  17  18  19  20  21  22  23  24  25 0
 3-21G
 ****
 26  28  29  30  38  39  40  41  42  43  44  45 0
 3-21G
 ****


