%nproc=1
%NoSave
%Mem=1900MB
#P OB98/GEN NMR

erre ene a

0 1
  C      117.166     483.701     494.665
  O      117.671     482.486     494.152
  H      117.677     483.915     495.606
  H      116.096     483.607     494.853
  H      117.347     484.526     493.969
  P      117.346     482.092     492.636
  C      117.239     479.560     493.161
  O      117.871     480.590     492.414
  C      118.068     478.267     493.123
  O      118.245     477.866     491.736
  C      119.470     478.486     493.705
  O      120.008     477.277     494.258
  C      120.286     478.866     492.487
  O      121.688     478.624     492.646
  C      119.629     478.014     491.399
  N      121.977     477.816     486.866
  C      122.285     477.161     488.039
  N      123.375     476.342     488.000
  N      121.626     477.311     489.156
  C      120.614     478.215     489.065
  C      120.215     478.944     487.965
  C      120.942     478.737     486.733
  O      120.718     479.311     485.664
  N      119.155     479.766     488.264
  C      118.917     479.541     489.540
  N      119.754     478.593     490.063
  O      118.394     482.955     491.786
  O      115.935     482.346     492.190
  H      121.818     477.659     492.702
  H      118.076     483.074     490.871
  H      122.505     477.644     486.026
  H      118.133     480.018     490.123
  H      120.082     477.014     491.370
  H      120.171     479.940     492.319
  H      124.018     476.357     487.225
  H      119.500     479.264     494.464
  H      123.796     476.112     488.905
  H      117.522     477.455     493.623
  H      116.248     479.406     492.718
  H      117.085     479.887     494.203
  P      119.955     477.085     495.852
  C      121.966     475.587     496.727
  O      120.635     475.692     496.252
  O      118.405     476.845     496.159
  O      120.518     478.235     496.638
  H      118.052     477.581     496.710
  H      122.194     474.561     496.927
  H      122.070     476.157     497.627
  H      122.640     475.964     495.986

 6  7  8  9  10  11  12  13  14  15  26  29  33  34 0
 6-311+G(2d,p)
 ****
 36  38  39  40  41 0
 6-311+G(2d,p)
 ****
 1  2  3  4  5  16  17  18  19  20  21  22  23  24  25 0
 3-21G
 ****
 27  28  30  31  32  35  37  42  43  44  45  46  47 0
 3-21G
 ****
 48  49 0
 3-21G
 ****


