%nproc=1
%NoSave
%Mem=1900MB
#P OB98/GEN NMR

erre ene a

0 1
  C     -216.048     355.682     371.070
  O     -216.322     355.445     369.706
  H     -216.482     354.876     371.664
  H     -216.494     356.630     371.385
  H     -214.967     355.707     371.246
  P     -215.688     356.474     368.650
  C     -217.386     355.669     366.860
  O     -216.020     355.890     367.190
  C     -217.578     354.271     366.274
  O     -216.900     354.201     364.989
  C     -217.019     353.134     367.149
  O     -217.878     352.000     367.002
  C     -215.693     352.814     366.475
  O     -215.225     351.506     366.786
  C     -216.079     353.021     365.011
  N     -212.926     350.484     362.014
  C     -214.050     350.061     362.704
  N     -214.391     348.761     362.572
  N     -214.780     350.848     363.449
  C     -214.348     352.123     363.460
  C     -213.252     352.673     362.835
  C     -212.438     351.787     362.031
  O     -211.423     352.100     361.416
  N     -213.132     354.010     363.121
  C     -214.156     354.271     363.917
  N     -214.917     353.162     364.152
  O     -214.115     356.217     368.810
  O     -216.045     357.910     368.859
  H     -215.189     351.423     367.767
  H     -213.736     356.844     369.453
  H     -212.397     349.837     361.469
  H     -214.371     355.238     364.350
  H     -216.666     352.182     364.613
  H     -214.927     353.534     366.784
  H     -213.900     348.107     361.974
  H     -216.913     353.387     368.207
  H     -215.231     348.439     363.031
  H     -218.648     354.121     366.082
  H     -217.698     356.416     366.123
  H     -217.992     355.785     367.763
  P     -218.966     351.727     368.155
  C     -218.905     349.158     367.731
  O     -219.695     350.332     367.832
  O     -220.106     352.806     367.828
  O     -218.441     351.878     369.544
  H     -220.574     353.045     368.650
  H     -219.536     348.321     367.514
  H     -218.396     348.990     368.657
  H     -218.188     349.277     366.946

 6  7  8  9  10  11  12  13  14  15  26  29  33  34 0
 6-311+G(2d,p)
 ****
 36  38  39  40  41 0
 6-311+G(2d,p)
 ****
 1  2  3  4  5  16  17  18  19  20  21  22  23  24  25 0
 3-21G
 ****
 27  28  30  31  32  35  37  42  43  44  45  46  47 0
 3-21G
 ****
 48  49 0
 3-21G
 ****


