%nproc=1
%NoSave
%Mem=1900MB
#P OB98/GEN NMR

erre ene a

0 1
  C     -174.736    -168.740    -365.722
  O     -173.865    -168.986    -364.638
  H     -174.781    -167.664    -365.901
  H     -175.742    -169.096    -365.483
  H     -174.371    -169.236    -366.626
  P     -173.523    -170.518    -364.314
  C     -172.266    -169.723    -362.148
  O     -173.206    -170.615    -362.743
  C     -172.664    -169.430    -360.700
  O     -173.893    -168.678    -360.640
  C     -172.969    -170.682    -359.885
  O     -171.811    -171.429    -359.574
  C     -173.642    -170.058    -358.667
  O     -172.677    -169.506    -357.764
  C     -174.477    -168.930    -359.331
  N     -175.890    -169.266    -359.430
  C     -176.784    -168.274    -359.004
  O     -176.361    -167.193    -358.585
  N     -178.131    -168.543    -359.039
  C     -178.555    -169.685    -359.480
  N     -179.900    -169.895    -359.475
  C     -177.651    -170.748    -359.957
  C     -176.346    -170.472    -359.905
  O     -172.078    -170.702    -364.979
  O     -174.547    -171.509    -364.771
  H     -172.250    -170.262    -357.321
  H     -171.427    -170.042    -364.685
  H     -178.050    -171.685    -360.326
  H     -175.615    -171.203    -360.240
  H     -174.388    -167.997    -358.758
  H     -174.228    -170.788    -358.109
  H     -173.710    -171.304    -360.400
  H     -171.871    -168.836    -360.239
  H     -180.486    -169.146    -359.114
  H     -172.193    -168.796    -362.720
  H     -180.340    -170.750    -359.761
  H     -171.285    -170.212    -362.177
  P     -171.845    -173.032    -359.590
  C     -170.000    -173.034    -357.788
  O     -171.293    -173.499    -358.154
  O     -171.169    -173.671    -360.754
  O     -173.412    -173.365    -359.476
  H     -173.843    -173.017    -358.672
  H     -169.747    -173.410    -356.819
  H     -169.998    -171.964    -357.767
  H     -169.282    -173.378    -358.503

 6  7  8  9  10  11  12  13  14  15  16  26  30  31  32  33  35 0
 6-311+G(2d,p)
 ****
 37  38 0
 6-311+G(2d,p)
 ****
 1  2  3  4  5  17  18  19  20  21  22  23  24  25 0
 3-21G
 ****
 27  28  29  34  36  39  40  41  42  43  44  45  46 0
 3-21G
 ****


