%nproc=1
%NoSave
%Mem=1900MB
#P OB98/GEN NMR

erre ene a

0 1
  C     -897.680    1021.648    -779.398
  O     -897.150    1021.880    -778.107
  H     -897.030    1022.111    -780.141
  H     -898.670    1022.095    -779.485
  H     -897.740    1020.576    -779.616
  P     -897.860    1021.150    -776.882
  C     -895.880    1019.468    -776.711
  O     -897.290    1019.646    -776.831
  C     -895.360    1018.613    -777.888
  O     -895.610    1019.305    -779.147
  C     -893.840    1018.343    -777.799
  O     -893.590    1017.004    -778.260
  C     -893.240    1019.333    -778.795
  O     -891.980    1018.903    -779.309
  C     -894.380    1019.420    -779.846
  N     -894.300    1020.670    -780.601
  C     -893.210    1020.812    -781.463
  O     -892.390    1019.903    -781.573
  N     -893.070    1021.976    -782.177
  C     -893.880    1022.960    -781.928
  N     -893.660    1024.112    -782.643
  C     -895.000    1022.905    -780.966
  C     -895.150    1021.748    -780.353
  O     -899.380    1020.948    -777.381
  O     -897.810    1021.876    -775.570
  H     -891.710    1019.544    -780.006
  H     -900.000    1020.965    -776.644
  H     -895.630    1023.777    -780.807
  H     -895.930    1021.605    -779.621
  H     -894.320    1018.579    -780.542
  H     -893.100    1020.297    -778.300
  H     -893.450    1018.467    -776.786
  H     -895.920    1017.672    -777.907
  H     -892.860    1024.133    -783.291
  H     -895.670    1018.957    -775.789
  H     -894.200    1024.968    -782.509
  H     -895.400    1020.448    -776.703
  P     -894.580    1015.856    -777.668
  C     -895.510    1014.929    -779.945
  O     -895.790    1015.650    -778.712
  O     -895.280    1016.577    -776.414
  O     -893.840    1014.622    -777.266
  H     -894.930    1016.199    -775.579
  H     -896.401    1014.871    -780.534
  H     -895.172    1013.941    -779.712
  H     -894.751    1015.445    -780.495

 6  7  8  9  10  11  12  13  14  15  16  26  30  31  32  33  35 0
 6-311+G(2d,p)
 ****
 37  38 0
 6-311+G(2d,p)
 ****
 1  2  3  4  5  17  18  19  20  21  22  23  24  25 0
 3-21G
 ****
 27  28  29  34  36  39  40  41  42  43  44  45  46 0
 3-21G
 ****


