%nproc=1
%NoSave
%Mem=1900MB
#P OB98/GEN NMR

erre ene a

0 1
  C     -261.289    -227.773    -778.912
  O     -260.447    -226.780    -778.358
  P     -258.845    -226.888    -778.526
  C     -257.624    -227.224    -776.284
  O     -258.299    -227.858    -777.379
  C     -258.631    -226.466    -775.413
  O     -259.795    -227.286    -775.142
  C     -258.093    -226.095    -774.038
  O     -257.160    -225.021    -774.108
  C     -259.378    -225.767    -773.286
  O     -259.837    -224.440    -773.608
  C     -260.353    -226.824    -773.886
  N     -260.583    -227.933    -772.970
  C     -261.752    -227.858    -772.208
  O     -262.470    -226.856    -772.258
  N     -262.071    -228.913    -771.385
  C     -261.240    -229.900    -771.256
  N     -261.627    -230.942    -770.482
  C     -259.917    -229.933    -771.928
  C     -259.671    -228.943    -772.781
  O     -258.134    -225.579    -778.646
  O     -258.656    -227.760    -779.853
  H     -258.035    -227.305    -780.450
  H     -259.068    -223.843    -773.479
  H     -259.227    -230.748    -771.737
  H     -258.744    -228.902    -773.340
  H     -261.311    -226.354    -774.138
  H     -259.263    -225.823    -772.208
  H     -257.618    -226.969    -773.576
  H     -258.952    -225.562    -775.957
  H     -262.544    -230.899    -770.052
  H     -256.884    -226.527    -776.697
  H     -261.221    -231.886    -770.575
  H     -257.095    -227.979    -775.699
  P     -256.136    -224.882    -772.874
  C     -256.768    -222.929    -771.266
  O     -256.966    -224.292    -771.640
  O     -255.199    -223.641    -773.313
  O     -255.327    -226.091    -772.581
  H     -254.277    -223.808    -773.012
  H     -257.621    -222.596    -770.671
  H     -256.678    -222.301    -772.145
  H     -255.866    -222.860    -770.661
  H     -262.310    -227.533    -778.700
  H     -261.049    -228.724    -778.483
  H     -261.144    -227.813    -779.971

 3  4  5  6  7  8  9  10  11  12  13  24  27  28  29  30  32 0
 6-311+G(2d,p)
 ****
 34  35 0
 6-311+G(2d,p)
 ****
 1  2  14  15  16  17  18  19  20  21  22  23  25  26 0
 3-21G
 ****
 31  33  36  37  38  39  40  41  42  43  44  45  46 0
 3-21G
 ****


