%nproc=1
%NoSave
%Mem=1900MB
#P OB98/GEN NMR

erre ene a

0 1
  C      -55.609     104.740      82.655
  O      -56.184     105.542      81.621
  P      -55.235     106.452      80.710
  C      -56.214     108.737      81.426
  O      -55.990     107.821      80.359
  C      -56.144     110.175      80.905
  O      -54.777     110.585      80.659
  C      -56.848     110.357      79.567
  O      -58.258     110.258      79.571
  C      -56.243     111.652      79.056
  O      -56.895     112.793      79.611
  C      -54.792     111.547      79.582
  N      -53.836     111.183      78.533
  C      -53.497     112.196      77.643
  O      -53.986     113.323      77.678
  N      -52.592     111.856      76.672
  C      -52.036     110.622      76.490
  O      -51.248     110.367      75.590
  C      -52.453     109.588      77.449
  C      -53.321     109.909      78.412
  O      -54.594     105.763      79.553
  O      -54.112     106.941      81.753
  H      -56.660     113.563      79.056
  H      -53.249     106.911      81.297
  H      -52.326     112.579      76.021
  H      -52.037     108.598      77.333
  H      -53.640     109.162      79.130
  H      -54.470     112.502      80.011
  H      -56.327     111.734      77.968
  H      -56.501     109.559      78.895
  H      -56.555     110.842      81.668
  H      -55.470     108.581      82.210
  H      -57.189     108.524      81.878
  P      -59.041     108.860      79.582
  C      -60.067     108.963      77.203
  O      -60.298     108.977      78.595
  O      -59.271     108.213      80.907
  O      -58.043     107.932      78.728
  H      -58.098     107.021      79.074
  H      -61.026     109.068      76.689
  H      -59.610     108.018      76.900
  H      -59.424     109.799      76.915
  H      -56.383     104.201      83.160
  H      -55.099     105.370      83.353
  H      -54.914     104.049      82.226

 3  4  5  6  7  8  9  10  11  12  13  23  28  29  30  31  32 0
 6-311+G(2d,p)
 ****
 33  34 0
 6-311+G(2d,p)
 ****
 1  2  14  15  16  17  18  19  20  21  22  24  25  26  27 0
 3-21G
 ****
 35  36  37  38  39  40  41  42  43  44  45 0
 3-21G
 ****


