%nproc=1
%NoSave
%Mem=1900MB
#P OB98/GEN NMR

erre ene a

0 1
  C       84.892     -14.821    -139.994
  O       84.390     -14.272    -138.792
  H       84.481     -14.275    -140.846
  H       85.980     -14.715    -140.001
  H       84.641     -15.881    -140.072
  P       82.859     -14.582    -138.427
  C       82.294     -12.187    -137.600
  O       82.457     -13.556    -137.257
  C       83.303     -11.324    -136.845
  O       84.623     -11.546    -137.417
  C       83.012      -9.815    -136.904
  O       83.325      -9.243    -135.631
  C       84.011      -9.310    -137.932
  O       84.333      -7.935    -137.755
  C       85.187     -10.252    -137.693
  N       88.383      -7.466    -140.497
  C       87.872      -7.281    -139.262
  N       87.064      -8.104    -138.563
  C       86.851      -9.246    -139.238
  C       87.310      -9.582    -140.500
  C       88.101      -8.618    -141.149
  N       88.572      -8.767    -142.434
  N       86.829     -10.821    -140.875
  C       86.072     -11.212    -139.869
  N       86.054     -10.294    -138.857
  O       82.966     -15.990    -137.670
  O       81.920     -14.638    -139.583
  H       85.056      -7.699    -138.367
  H       82.922     -16.714    -138.321
  H       88.134      -6.345    -138.775
  H       85.498     -12.128    -139.833
  H       85.800      -9.952    -136.834
  H       83.597      -9.442    -138.938
  H       81.978      -9.574    -137.174
  H       83.344     -11.667    -135.804
  H       81.282     -11.869    -137.329
  H       89.038      -7.979    -142.857
  H       88.278      -9.569    -142.972
  H       82.422     -12.067    -138.680
  P       82.318      -8.141    -135.049
  C       84.050      -6.705    -133.736
  O       82.922      -7.572    -133.679
  O       81.062      -9.008    -134.568
  O       81.919      -7.099    -136.045
  H       80.239      -8.501    -134.679
  H       84.328      -6.416    -132.744
  H       83.802      -5.834    -134.305
  H       84.868      -7.214    -134.202

 6  7  8  9  10  11  12  13  14  15  25  28  32  33  34  35 0
 6-311+G(2d,p)
 ****
 36  39  40 0
 6-311+G(2d,p)
 ****
 1  2  3  4  5  16  17  18  19  20  21  22  23  24 0
 3-21G
 ****
 26  27  29  30  31  37  38  41  42  43  44  45  46  47 0
 3-21G
 ****
 48 0
 3-21G
 ****


