%nproc=1
%NoSave
%Mem=1900MB
#P OB98/GEN NMR

erre ene a

0 1
  C      -97.350    -733.541     181.109
  O      -96.993    -733.506     179.725
  P      -96.845    -732.104     178.953
  C      -98.529    -732.800     177.168
  O      -97.216    -732.320     177.402
  C      -98.617    -733.796     175.997
  O      -98.108    -733.210     174.777
  C      -97.859    -735.112     176.217
  O      -98.610    -736.122     175.544
  C      -96.544    -734.841     175.503
  O      -95.835    -736.044     175.194
  C      -97.026    -734.028     174.295
  N      -95.959    -733.238     173.695
  C      -95.128    -733.873     172.775
  O      -95.271    -735.073     172.541
  N      -94.125    -733.148     172.190
  C      -93.905    -731.933     172.551
  N      -92.878    -731.272     171.937
  C      -94.710    -731.235     173.582
  C      -95.712    -731.940     174.099
  O      -95.545    -731.398     179.187
  O      -98.068    -731.230     179.510
  H      -96.393    -736.582     174.597
  H      -97.820    -730.285     179.497
  H      -94.475    -730.221     173.876
  H      -96.363    -731.523     174.854
  H      -97.436    -734.696     173.520
  H      -95.897    -734.220     176.142
  H      -97.722    -735.361     177.271
  H      -99.684    -734.013     175.827
  H      -92.336    -731.791     171.264
  H      -99.182    -731.944     176.947
  H      -92.554    -730.358     172.228
  H      -98.918    -733.269     178.076
  P      -99.690    -737.027     176.294
  C      -99.118    -739.524     176.224
  O      -99.718    -738.442     175.543
  O     -101.030    -736.391     176.481
  O      -99.012    -737.379     177.715
  H      -99.698    -737.687     178.326
  H      -99.384    -740.461     175.720
  H      -99.465    -739.572     177.262
  H      -98.025    -739.409     176.211
  H      -97.398    -734.558     181.439
  H      -98.305    -733.077     181.243
  H      -96.614    -733.015     181.681

 3  4  5  6  7  8  9  10  11  12  13  23  27  28  29  30  32 0
 6-311+G(2d,p)
 ****
 34  35 0
 6-311+G(2d,p)
 ****
 1  2  14  15  16  17  18  19  20  21  22  24  25  26 0
 3-21G
 ****
 31  33  36  37  38  39  40  41  42  43  44  45  46 0
 3-21G
 ****


