%nproc=1
%NoSave
%Mem=1900MB
#P OB98/GEN NMR

erre ene a

0 1
  C        9.219    -264.972     258.243
  O        9.683    -263.913     257.422
  P        8.592    -262.847     256.917
  C        8.005    -263.204     254.403
  O        7.742    -263.553     255.757
  C        9.353    -263.796     253.959
  O        9.530    -265.105     254.543
  C        9.484    -263.997     252.452
  O        9.724    -262.760     251.789
  C       10.657    -264.980     252.411
  O       11.894    -264.280     252.592
  C       10.363    -265.878     253.628
  N       10.887    -270.904     252.794
  C       11.788    -269.944     253.093
  N       11.580    -268.625     253.271
  C       10.273    -268.331     253.138
  C        9.244    -269.197     252.808
  C        9.588    -270.548     252.640
  N        8.662    -271.527     252.332
  N        8.038    -268.523     252.727
  C        8.335    -267.271     253.005
  N        9.669    -267.099     253.271
  O        9.473    -261.768     256.125
  O        7.777    -262.214     258.013
  H       12.590    -264.949     252.716
  H        9.100    -260.868     256.232
  H       12.818    -270.279     253.197
  H        7.617    -266.453     253.027
  H       11.276    -266.164     254.173
  H       10.721    -265.524     251.458
  H        8.578    -264.468     252.048
  H       10.157    -263.139     254.333
  H        8.049    -262.117     254.303
  H        9.017    -272.442     252.085
  H        7.728    -271.230     252.078
  H        7.186    -263.574     253.767
  P        9.442    -262.711     250.214
  C       11.599    -262.642     248.805
  O       10.713    -263.455     249.567
  O        9.724    -261.170     249.876
  O        8.099    -263.229     249.792
  H       10.573    -260.870     250.259
  H       12.440    -263.257     248.466
  H       11.975    -261.817     249.410
  H       11.067    -262.253     247.923
  H       10.040    -265.605     258.507
  H        8.487    -265.542     257.710
  H        8.780    -264.568     259.131

 3  4  5  6  7  8  9  10  11  12  22  25  29  30  31  32 0
 6-311+G(2d,p)
 ****
 33  36  37 0
 6-311+G(2d,p)
 ****
 1  2  13  14  15  16  17  18  19  20  21  23  24  26 0
 3-21G
 ****
 27  28  34  35  38  39  40  41  42  43  44  45  46  47  48 0
 3-21G
 ****


