%nproc=1
%NoSave
%Mem=1900MB
#P OB98/GEN NMR

erre ene a

0 1
  C     -128.053      58.393    -102.874
  O     -128.147      58.902    -104.190
  H     -129.059      58.169    -102.511
  H     -127.601      59.141    -102.218
  H     -127.458      57.475    -102.857
  P     -126.781      59.081    -105.009
  C     -125.908      58.273    -107.323
  O     -127.021      58.410    -106.450
  C     -126.119      57.081    -108.256
  O     -125.919      55.856    -107.494
  C     -127.525      57.012    -108.871
  O     -127.407      56.503    -110.205
  C     -128.229      55.983    -108.007
  O     -129.331      55.351    -108.642
  C     -127.074      55.021    -107.706
  N     -127.335      54.177    -106.539
  C     -128.136      53.057    -106.728
  O     -128.569      52.676    -107.816
  N     -128.441      52.350    -105.592
  C     -128.053      52.663    -104.322
  O     -128.377      52.003    -103.341
  C     -127.217      53.863    -104.185
  C     -126.902      54.556    -105.283
  O     -125.789      58.058    -104.283
  O     -126.238      60.470    -105.056
  H     -125.321      58.499    -103.549
  H     -129.112      55.268    -109.593
  H     -129.021      51.536    -105.711
  H     -126.899      54.148    -103.189
  H     -126.304      55.459    -105.216
  H     -126.866      54.390    -108.576
  H     -128.593      56.454    -107.087
  H     -128.055      57.969    -108.887
  H     -125.351      57.105    -109.035
  H     -125.002      58.108    -106.733
  H     -125.790      59.196    -107.902
  P     -127.516      57.558    -111.411
  C     -126.060      57.849    -113.572
  O     -126.585      56.978    -112.579
  O     -126.688      58.790    -110.817
  O     -128.926      57.863    -111.793
  H     -125.937      58.516    -110.266
  H     -125.467      57.286    -114.262
  H     -125.452      58.596    -113.106
  H     -126.866      58.320    -114.095

 6  7  8  9  10  11  12  13  14  15  16  27  31  32  33  34  35 0
 6-311+G(2d,p)
 ****
 36  37 0
 6-311+G(2d,p)
 ****
 1  2  3  4  5  17  18  19  20  21  22  23  24  25 0
 3-21G
 ****
 26  28  29  30  38  39  40  41  42  43  44  45 0
 3-21G
 ****


