%nproc=1
%NoSave
%Mem=1900MB
#P OB98/GEN NMR

erre ene a

0 1
  C     -898.100     877.195     948.240
  O     -897.630     878.244     947.388
  P     -898.540     879.463     946.887
  C     -896.910     881.481     947.054
  O     -898.030     880.803     947.631
  C     -895.630     881.173     947.821
  O     -895.350     879.749     947.767
  C     -894.370     881.821     947.279
  O     -894.310     883.204     947.559
  C     -893.280     880.989     947.963
  O     -893.000     881.484     949.283
  C     -893.940     879.598     948.055
  N     -893.320     878.626     947.163
  C     -893.050     877.366     947.701
  O     -893.250     877.128     948.894
  N     -892.530     876.395     946.864
  C     -892.230     876.703     945.652
  N     -891.740     875.696     944.865
  C     -892.360     878.061     945.079
  C     -892.910     878.961     945.886
  O     -900.000     879.230     947.034
  O     -898.140     879.694     945.357
  H     -898.880     880.103     944.879
  H     -892.530     882.336     949.177
  H     -892.050     878.271     944.071
  H     -893.060     879.985     945.550
  H     -893.880     879.218     949.082
  H     -892.330     881.012     947.410
  H     -894.310     881.656     946.183
  H     -895.780     881.452     948.878
  H     -891.660     874.774     945.279
  H     -897.110     882.564     947.102
  H     -891.480     875.816     943.891
  H     -896.810     881.197     946.003
  P     -895.070     884.192     946.539
  C     -896.520     885.212     948.416
  O     -896.480     884.553     947.172
  O     -895.440     883.246     945.300
  O     -894.260     885.368     946.100
  H     -895.310     883.730     944.460
  H     -897.450     885.797     948.479
  H     -895.670     885.893     948.542
  H     -896.530     884.487     949.228
  H     -897.304     876.505     948.429
  H     -898.909     876.683     947.762
  H     -898.438     877.612     949.166

 3  4  5  6  7  8  9  10  11  12  13  24  27  28  29  30  32 0
 6-311+G(2d,p)
 ****
 34  35 0
 6-311+G(2d,p)
 ****
 1  2  14  15  16  17  18  19  20  21  22  23  25  26 0
 3-21G
 ****
 31  33  36  37  38  39  40  41  42  43  44  45  46 0
 3-21G
 ****


