%nproc=1
%NoSave
%Mem=1900MB
#P OB98/GEN NMR

erre ene a

0 1
  C     -200.309    1061.871     586.112
  O     -199.013    1062.322     585.772
  H     -200.716    1061.299     585.271
  H     -200.963    1062.724     586.299
  H     -200.275    1061.225     586.997
  P     -198.161    1063.055     586.920
  C     -198.139    1062.463     589.448
  O     -197.996    1061.994     588.114
  C     -197.435    1061.519     590.425
  O     -198.108    1060.232     590.402
  C     -195.958    1061.283     590.095
  O     -195.222    1061.206     591.314
  C     -195.953    1059.917     589.412
  O     -194.698    1059.255     589.529
  C     -197.121    1059.216     590.125
  N     -197.664    1058.132     589.316
  C     -198.083    1056.982     589.997
  O     -197.967    1056.920     591.226
  N     -198.557    1055.919     589.278
  C     -198.541    1055.966     587.979
  N     -198.995    1054.855     587.331
  C     -198.046    1057.121     587.215
  C     -197.634    1058.168     587.937
  O     -199.187    1064.127     587.520
  O     -196.887    1063.684     586.465
  H     -194.516    1059.101     590.484
  H     -198.726    1064.925     587.834
  H     -198.032    1057.097     586.135
  H     -197.256    1059.066     587.462
  H     -196.793    1058.803     591.092
  H     -196.178    1060.043     588.348
  H     -195.525    1062.064     589.455
  H     -197.547    1061.922     591.440
  H     -199.310    1054.077     587.880
  H     -199.208    1062.501     589.696
  H     -198.989    1054.763     586.320
  H     -197.721    1063.477     589.529
  P     -194.059    1062.297     591.522
  C     -194.066    1064.820     592.126
  O     -194.685    1063.557     592.299
  O     -193.799    1062.843     590.047
  O     -192.814    1061.732     592.133
  H     -192.936    1062.516     589.712
  H     -194.590    1065.555     592.700
  H     -194.092    1065.091     591.091
  H     -193.049    1064.767     592.456

 6  7  8  9  10  11  12  13  14  15  16  26  30  31  32  33  35 0
 6-311+G(2d,p)
 ****
 37  38 0
 6-311+G(2d,p)
 ****
 1  2  3  4  5  17  18  19  20  21  22  23  24  25 0
 3-21G
 ****
 27  28  29  34  36  39  40  41  42  43  44  45  46 0
 3-21G
 ****


