%nproc=1
%NoSave
%Mem=1900MB
#P OB98/GEN NMR

erre ene a

0 1
  C     -307.218    -257.209     300.182
  O     -308.132    -256.421     300.926
  P     -309.028    -257.158     302.030
  C     -311.091    -255.633     301.577
  O     -310.140    -256.115     302.515
  C     -312.251    -254.961     302.312
  O     -312.988    -255.935     303.085
  C     -311.810    -253.899     303.309
  O     -311.483    -252.681     302.659
  C     -313.029    -253.799     304.216
  O     -314.021    -252.929     303.645
  C     -313.530    -255.257     304.238
  N     -313.192    -255.945     305.478
  C     -313.735    -255.402     306.641
  O     -314.439    -254.391     306.642
  N     -313.408    -256.037     307.808
  C     -312.566    -257.105     307.930
  O     -312.267    -257.598     309.014
  C     -311.998    -257.619     306.675
  C     -312.326    -257.018     305.525
  O     -308.050    -257.286     303.292
  O     -309.565    -258.485     301.609
  H     -314.831    -253.042     304.176
  H     -308.222    -258.123     303.763
  H     -313.811    -255.678     308.656
  H     -311.325    -258.463     306.734
  H     -311.908    -257.373     304.590
  H     -314.620    -255.282     304.117
  H     -312.777    -253.395     305.200
  H     -310.956    -254.268     303.896
  H     -312.934    -254.530     301.568
  H     -311.468    -256.470     300.979
  H     -310.602    -254.923     300.904
  P     -309.994    -252.121     302.867
  C     -311.290    -250.077     303.851
  O     -310.170    -250.552     303.135
  O     -309.421    -252.231     301.374
  O     -309.216    -252.887     303.888
  H     -310.113    -252.086     300.708
  H     -311.586    -250.773     304.641
  H     -312.126    -249.936     303.160
  H     -311.035    -249.117     304.304
  H     -306.693    -256.586     299.488
  H     -307.753    -257.967     299.648
  H     -306.518    -257.669     300.849

 3  4  5  6  7  8  9  10  11  12  13  23  28  29  30  31  32 0
 6-311+G(2d,p)
 ****
 33  34 0
 6-311+G(2d,p)
 ****
 1  2  14  15  16  17  18  19  20  21  22  24  25  26 0
 3-21G
 ****
 27  35  36  37  38  39  40  41  42  43  44  45 0
 3-21G
 ****


