%nproc=1
%NoSave
%Mem=1900MB
#P OB98/GEN NMR

erre ene a

0 1
  C      -67.311      49.903      56.718
  O      -67.845      50.681      57.788
  P      -66.915      51.806      58.450
  C      -64.793      51.925      59.917
  O      -65.703      51.083      59.216
  C      -64.454      51.330      61.293
  O      -65.539      51.624      62.213
  C      -64.293      49.805      61.315
  O      -63.005      49.258      61.059
  C      -64.616      49.493      62.776
  O      -63.443      49.696      63.587
  C      -65.675      50.528      63.141
  N      -68.935      47.182      65.231
  C      -67.648      47.484      65.510
  N      -66.851      48.387      64.904
  C      -67.511      49.027      63.925
  C      -68.824      48.829      63.531
  C      -69.553      47.852      64.230
  N      -70.860      47.538      63.939
  N      -69.149      49.665      62.484
  C      -68.044      50.342      62.238
  N      -67.030      50.002      63.092
  O      -67.624      52.865      59.226
  O      -66.177      52.438      57.173
  H      -63.237      50.648      63.545
  H      -66.078      53.401      57.308
  H      -67.198      46.922      66.324
  H      -67.933      51.081      61.457
  H      -65.531      50.936      64.149
  H      -64.921      48.453      62.923
  H      -65.033      49.326      60.662
  H      -63.544      51.806      61.677
  H      -65.237      52.916      60.044
  H      -71.295      46.793      64.461
  H      -71.318      47.985      63.158
  H      -63.912      52.053      59.286
  P      -62.642      48.606      59.641
  C      -63.306      46.357      58.477
  O      -63.423      47.207      59.598
  O      -61.186      48.512      59.340
  O      -63.474      49.512      58.619
  H      -64.438      49.409      58.682
  H      -63.728      45.382      58.731
  H      -62.259      46.228      58.194
  H      -63.869      46.777      57.637
  H      -68.047      49.201      56.386
  H      -66.444      49.377      57.058
  H      -67.042      50.548      55.908

 3  4  5  6  7  8  9  10  11  12  22  25  29  30  31  32 0
 6-311+G(2d,p)
 ****
 33  36  37 0
 6-311+G(2d,p)
 ****
 1  2  13  14  15  16  17  18  19  20  21  23  24  26 0
 3-21G
 ****
 27  28  34  35  38  39  40  41  42  43  44  45  46  47  48 0
 3-21G
 ****


