%nproc=1
%NoSave
%Mem=1900MB
#P OB98/GEN NMR

erre ene a

0 1
  C     -110.862     -25.968     -22.221
  O     -111.020     -27.014     -23.155
  P     -110.151     -28.355     -23.059
  C     -110.118     -30.335     -21.412
  O     -110.373     -28.945     -21.580
  C     -109.552     -30.607     -20.013
  O     -108.204     -30.046     -19.939
  C     -110.394     -29.965     -18.891
  O     -110.783     -30.868     -17.856
  C     -109.528     -28.797     -18.449
  O     -109.824     -28.322     -17.149
  C     -108.118     -29.350     -18.680
  N     -107.100     -28.303     -18.690
  C     -106.121     -28.360     -17.704
  O     -106.053     -29.231     -16.841
  N     -105.225     -27.328     -17.689
  C     -105.277     -26.211     -18.467
  O     -104.499     -25.277     -18.333
  C     -106.358     -26.188     -19.465
  C     -107.193     -27.225     -19.548
  O     -108.719     -28.218     -23.455
  O     -110.980     -29.389     -23.957
  H     -110.770     -28.081     -17.127
  H     -111.892     -29.549     -23.659
  H     -104.510     -27.356     -16.979
  H     -106.431     -25.310     -20.090
  H     -107.999     -27.236     -20.274
  H     -107.848     -30.085     -17.920
  H     -109.710     -27.965     -19.141
  H     -111.345     -29.586     -19.282
  H     -109.484     -31.690     -19.885
  H     -109.390     -30.652     -22.160
  H     -111.038     -30.905     -21.584
  P     -111.930     -30.588     -16.776
  C     -114.408     -29.802     -16.838
  O     -113.191     -29.965     -17.537
  O     -111.491     -29.839     -15.562
  O     -112.435     -32.055     -16.379
  H     -112.767     -32.049     -15.463
  H     -115.233     -29.866     -17.551
  H     -114.426     -28.814     -16.371
  H     -114.539     -30.572     -16.073
  H     -111.532     -25.170     -22.463
  H     -109.854     -25.610     -22.254
  H     -111.080     -26.331     -21.238

 3  4  5  6  7  8  9  10  11  12  13  23  28  29  30  31  32 0
 6-311+G(2d,p)
 ****
 33  34 0
 6-311+G(2d,p)
 ****
 1  2  14  15  16  17  18  19  20  21  22  24  25  26  27 0
 3-21G
 ****
 35  36  37  38  39  40  41  42  43  44  45 0
 3-21G
 ****


