%nproc=1
%NoSave
%Mem=1900MB
#P OB98/GEN NMR

erre ene a

0 1
  C      170.728    -159.096    -500.975
  O      170.714    -159.571    -499.640
  H      169.705    -159.122    -501.364
  H      171.354    -159.748    -501.595
  H      171.102    -158.072    -501.013
  P      172.087    -159.461    -498.823
  C      171.496    -157.383    -497.324
  O      172.261    -157.922    -498.394
  C      172.311    -157.398    -496.039
  O      173.550    -156.674    -496.195
  C      171.635    -156.699    -494.865
  O      170.545    -157.426    -494.355
  C      172.809    -156.583    -493.903
  O      173.035    -157.830    -493.221
  C      173.973    -156.259    -494.870
  N      174.350    -154.855    -494.836
  C      175.258    -154.492    -493.828
  O      175.687    -155.331    -493.051
  N      175.620    -153.174    -493.725
  C      175.145    -152.289    -494.552
  N      175.538    -151.005    -494.390
  C      174.214    -152.641    -495.645
  C      173.855    -153.926    -495.722
  O      173.190    -159.642    -499.965
  O      172.225    -160.410    -497.675
  H      173.800    -157.690    -492.639
  H      173.080    -159.027    -500.712
  H      173.850    -151.881    -496.324
  H      173.171    -154.263    -496.495
  H      174.861    -156.856    -494.616
  H      172.630    -155.830    -493.125
  H      171.345    -155.676    -495.156
  H      172.553    -158.442    -495.792
  H      176.169    -150.801    -493.616
  H      170.556    -157.939    -497.195
  H      175.210    -150.234    -494.954
  H      171.228    -156.353    -497.593
  P      169.235    -156.654    -493.809
  C      167.732    -157.626    -495.662
  O      168.274    -156.436    -495.079
  O      169.518    -155.413    -493.020
  O      168.463    -157.786    -492.990
  H      168.204    -158.569    -493.508
  H      167.112    -157.365    -496.494
  H      167.149    -158.147    -494.932
  H      168.530    -158.255    -495.996

 6  7  8  9  10  11  12  13  14  15  16  26  30  31  32  33  35 0
 6-311+G(2d,p)
 ****
 37  38 0
 6-311+G(2d,p)
 ****
 1  2  3  4  5  17  18  19  20  21  22  23  24  25 0
 3-21G
 ****
 27  28  29  34  36  39  40  41  42  43  44  45  46 0
 3-21G
 ****


