%nproc=1
%NoSave
%Mem=1900MB
#P OB98/GEN NMR

erre ene a

0 1
  C     -170.562    -655.371     131.062
  O     -171.728    -655.920     130.479
  P     -171.892    -657.528     130.561
  C     -170.645    -657.990     128.307
  O     -170.673    -658.145     129.722
  C     -170.347    -659.337     127.650
  O     -169.068    -659.839     128.083
  C     -171.368    -660.421     127.966
  O     -172.504    -660.296     127.137
  C     -170.553    -661.684     127.700
  O     -170.514    -661.984     126.289
  C     -169.165    -661.281     128.221
  N     -166.578    -664.454     131.198
  C     -166.731    -664.450     129.820
  N     -166.057    -665.404     129.138
  N     -167.470    -663.590     129.175
  C     -168.096    -662.694     129.988
  C     -168.033    -662.618     131.356
  C     -167.172    -663.541     132.060
  O     -166.924    -663.531     133.261
  N     -168.817    -661.596     131.836
  C     -169.328    -661.049     130.745
  N     -168.901    -661.667     129.593
  O     -173.181    -657.800     129.649
  O     -172.035    -658.085     131.947
  H     -171.432    -662.088     125.964
  H     -173.974    -657.910     130.206
  H     -165.984    -665.132     131.631
  H     -169.985    -660.189     130.738
  H     -168.356    -661.716     127.614
  H     -170.977    -662.563     128.196
  H     -165.494    -666.114     129.571
  H     -171.649    -660.383     129.028
  H     -166.165    -665.420     128.122
  H     -170.293    -659.169     126.563
  H     -169.861    -657.266     128.045
  H     -171.607    -657.593     127.964
  P     -173.908    -660.830     127.714
  C     -173.644    -663.387     127.343
  O     -173.653    -662.316     128.263
  O     -174.791    -661.046     126.395
  O     -174.577    -659.889     128.666
  H     -175.721    -660.816     126.581
  H     -172.975    -664.162     127.722
  H     -173.285    -663.064     126.351
  H     -174.650    -663.789     127.243
  H     -170.571    -654.308     130.943
  H     -169.697    -655.777     130.580
  H     -170.536    -655.613     132.104

 3  4  5  6  7  8  9  10  11  12  23  26  30  31 0
 6-311+G(2d,p)
 ****
 33  35  36  37  38 0
 6-311+G(2d,p)
 ****
 1  2  13  14  15  16  17  18  19  20  21  22  24  25 0
 3-21G
 ****
 27  28  29  32  34  39  40  41  42  43  44  45  46  47  48  49 0
 3-21G
 ****


