%nproc=1
%NoSave
%Mem=1900MB
#P OB98/GEN NMR

erre ene a

0 1
  C     -226.376     -57.084     111.991
  O     -226.561     -57.547     113.332
  P     -227.947     -58.286     113.673
  C     -227.607     -60.853     114.040
  O     -227.556     -59.548     114.589
  C     -226.803     -61.840     114.897
  O     -225.411     -61.407     114.971
  C     -227.321     -61.995     116.332
  O     -227.150     -63.376     116.688
  C     -226.373     -61.123     117.136
  O     -226.339     -61.491     118.507
  C     -225.064     -61.353     116.370
  N     -224.065     -60.320     116.636
  C     -223.033     -60.650     117.507
  O     -222.979     -61.724     118.105
  N     -222.085     -59.683     117.705
  C     -222.113     -58.416     117.191
  O     -221.235     -57.589     117.401
  C     -223.288     -58.087     116.369
  C     -224.197     -59.039     116.137
  O     -228.324     -58.920     112.258
  O     -228.970     -57.366     114.253
  H     -227.553     -59.240     111.757
  H     -225.619     -60.995     118.953
  H     -221.310     -59.913     118.309
  H     -223.375     -57.077     115.992
  H     -225.083     -58.825     115.554
  H     -224.632     -62.326     116.636
  H     -226.681     -60.073     117.066
  H     -228.373     -61.714     116.440
  H     -226.813     -62.814     114.391
  H     -227.187     -60.848     113.027
  H     -228.655     -61.169     113.949
  P     -228.401     -64.155     117.339
  C     -229.518     -65.626     115.479
  O     -228.576     -65.524     116.525
  O     -229.609     -63.252     116.786
  O     -228.384     -64.248     118.829
  H     -229.534     -63.057     115.837
  H     -229.317     -66.536     114.911
  H     -229.447     -64.771     114.802
  H     -230.529     -65.682     115.894
  H     -225.418     -56.615     111.904
  H     -227.142     -56.377     111.749
  H     -226.429     -57.913     111.317

 3  4  5  6  7  8  9  10  11  12  13  24  28  29  30  31  32 0
 6-311+G(2d,p)
 ****
 33  34 0
 6-311+G(2d,p)
 ****
 1  2  14  15  16  17  18  19  20  21  22  23  25  26  27 0
 3-21G
 ****
 35  36  37  38  39  40  41  42  43  44  45 0
 3-21G
 ****


