%nproc=1
%NoSave
%Mem=1900MB
#P OB98/GEN NMR

erre ene a

0 1
  C      280.792     316.672    -279.502
  O      280.644     317.817    -278.696
  H      281.632     316.081    -279.123
  H      281.004     316.949    -280.539
  H      279.891     316.051    -279.458
  P      279.512     318.887    -279.081
  C      278.075     318.870    -276.935
  O      278.182     318.457    -278.294
  C      276.606     319.099    -276.563
  O      276.059     320.063    -277.499
  C      275.769     317.815    -276.651
  O      275.038     317.548    -275.454
  C      274.990     317.995    -277.943
  O      273.770     317.284    -277.994
  C      274.852     319.518    -278.066
  N      274.664     319.987    -279.431
  C      273.366     320.290    -279.832
  O      272.364     320.204    -279.119
  N      273.225     320.725    -281.125
  C      274.236     320.866    -282.039
  O      274.048     321.256    -283.188
  C      275.580     320.502    -281.566
  C      275.733     320.088    -280.298
  O      279.323     319.125    -280.542
  O      279.966     320.223    -278.319
  H      273.408     317.386    -278.899
  H      280.339     320.855    -278.969
  H      272.297     320.963    -281.420
  H      276.400     320.593    -282.264
  H      276.710     319.815    -279.920
  H      274.006     319.873    -277.473
  H      275.605     317.624    -278.778
  H      276.420     316.935    -276.742
  H      276.561     319.544    -275.560
  H      278.647     319.799    -276.819
  H      278.505     318.102    -276.283
  P      275.297     316.313    -274.475
  C      275.592     317.962    -272.445
  O      276.080     316.847    -273.188
  O      275.826     315.068    -275.116
  O      273.833     315.973    -273.894
  H      273.813     315.009    -273.737
  H      276.252     318.162    -271.627
  H      274.615     317.740    -272.069
  H      275.543     318.821    -273.082

 6  7  8  9  10  11  12  13  14  15  16  26  31  32  33  34  35 0
 6-311+G(2d,p)
 ****
 36  37 0
 6-311+G(2d,p)
 ****
 1  2  3  4  5  17  18  19  20  21  22  23  24  25 0
 3-21G
 ****
 27  28  29  30  38  39  40  41  42  43  44  45 0
 3-21G
 ****


