%nproc=1
%NoSave
%Mem=1900MB
#P OB98/GEN NMR

erre ene a

0 1
  C      404.158    -376.209    -386.235
  O      404.331    -375.915    -387.612
  P      405.684    -375.239    -388.151
  C      404.693    -376.027    -390.405
  O      405.447    -375.031    -389.723
  C      404.668    -375.722    -391.899
  O      406.007    -375.466    -392.367
  C      404.136    -376.856    -392.766
  O      402.721    -376.940    -392.691
  C      404.700    -376.469    -394.128
  O      403.891    -375.443    -394.728
  C      406.080    -375.892    -393.748
  N      407.166    -376.844    -393.951
  C      408.000    -376.613    -395.048
  O      407.821    -375.649    -395.789
  N      409.052    -377.468    -395.263
  C      409.242    -378.477    -394.471
  N      410.339    -379.253    -394.695
  C      408.353    -378.789    -393.337
  C      407.350    -377.937    -393.133
  O      406.935    -375.972    -387.803
  O      405.635    -373.746    -387.594
  H      402.991    -375.814    -394.824
  H      406.036    -373.643    -386.695
  H      408.542    -379.649    -392.709
  H      406.667    -378.082    -392.309
  H      406.287    -374.990    -394.334
  H      404.756    -377.304    -394.833
  H      404.569    -377.813    -392.451
  H      404.071    -374.812    -392.054
  H      411.009    -378.901    -395.368
  H      403.669    -376.016    -390.018
  H      410.710    -379.860    -393.974
  H      405.136    -377.009    -390.211
  P      402.072    -378.394    -392.524
  C      400.035    -377.044    -391.662
  O      400.486    -378.158    -392.409
  O      402.518    -378.831    -391.050
  O      402.499    -379.383    -393.557
  H      403.271    -379.449    -391.091
  H      398.973    -376.888    -391.876
  H      400.586    -376.139    -391.938
  H      400.151    -377.238    -390.593
  H      403.196    -376.653    -386.083
  H      404.228    -375.306    -385.666
  H      404.919    -376.890    -385.917

 3  4  5  6  7  8  9  10  11  12  13  23  27  28  29  30  32 0
 6-311+G(2d,p)
 ****
 34  35 0
 6-311+G(2d,p)
 ****
 1  2  14  15  16  17  18  19  20  21  22  24  25  26 0
 3-21G
 ****
 31  33  36  37  38  39  40  41  42  43  44  45  46 0
 3-21G
 ****


