%nproc=1
%NoSave
%Mem=1900MB
#P OB98/GEN NMR

erre ene a

0 1
  C      -67.709      36.926     -43.583
  O      -67.128      36.218     -44.659
  H      -68.385      37.685     -43.985
  H      -66.933      37.422     -42.992
  H      -68.278      36.244     -42.946
  P      -66.018      35.122     -44.274
  C      -66.143      33.005     -42.754
  O      -66.752      34.219     -43.166
  C      -66.199      32.891     -41.234
  O      -65.594      34.046     -40.615
  C      -67.613      32.819     -40.667
  O      -68.194      31.532     -40.792
  C      -67.343      33.180     -39.218
  O      -66.765      32.050     -38.539
  C      -66.311      34.319     -39.381
  N      -66.922      35.647     -39.424
  C      -67.137      36.281     -38.195
  O      -66.828      35.726     -37.142
  N      -67.729      37.522     -38.184
  C      -68.068      38.086     -39.301
  N      -68.662      39.307     -39.230
  C      -67.845      37.462     -40.618
  C      -67.277      36.259     -40.606
  O      -64.959      35.948     -43.403
  O      -65.422      34.364     -45.412
  H      -66.744      32.271     -37.590
  H      -64.295      35.331     -43.010
  H      -68.155      37.967     -41.521
  H      -67.085      35.738     -41.538
  H      -65.576      34.300     -38.567
  H      -68.246      33.458     -38.671
  H      -68.262      33.586     -41.104
  H      -65.607      32.014     -40.939
  H      -68.858      39.682     -38.312
  H      -65.103      33.007     -43.095
  H      -69.120      39.738     -40.024
  H      -66.664      32.153     -43.201
  P      -69.788      31.417     -40.635
  C      -71.803      32.476     -41.885
  O      -70.433      32.586     -41.525
  O      -70.039      31.915     -39.137
  O      -70.348      30.049     -40.873
  H      -70.739      31.390     -38.703
  H      -72.086      33.324     -42.473
  H      -72.403      32.440     -41.000
  H      -71.952      31.582     -42.453

 6  7  8  9  10  11  12  13  14  15  16  26  30  31  32  33  35 0
 6-311+G(2d,p)
 ****
 37  38 0
 6-311+G(2d,p)
 ****
 1  2  3  4  5  17  18  19  20  21  22  23  24  25 0
 3-21G
 ****
 27  28  29  34  36  39  40  41  42  43  44  45  46 0
 3-21G
 ****


