%nproc=1
%NoSave
%Mem=1900MB
#P OB98/GEN NMR

erre ene a

0 1
  C      434.293    -437.761    -584.698
  O      435.236    -438.795    -584.457
  P      435.762    -439.167    -582.980
  C      435.211    -441.687    -583.207
  O      436.226    -440.708    -582.969
  C      435.712    -442.827    -584.104
  O      435.649    -442.454    -585.501
  C      437.184    -443.220    -583.851
  O      437.295    -444.021    -582.697
  C      437.520    -443.915    -585.169
  O      437.043    -445.267    -585.164
  C      436.741    -443.075    -586.185
  N      440.321    -442.227    -589.753
  C      439.673    -443.341    -589.367
  N      438.734    -443.500    -588.415
  C      438.462    -442.308    -587.835
  C      439.033    -441.087    -588.120
  C      440.006    -441.061    -589.134
  N      440.677    -439.916    -589.517
  N      438.519    -440.096    -587.306
  C      437.627    -440.712    -586.544
  N      437.554    -442.058    -586.841
  O      434.786    -438.821    -581.885
  O      437.132    -438.362    -582.809
  H      437.065    -445.587    -586.087
  H      437.272    -438.162    -581.856
  H      439.945    -444.263    -589.902
  H      437.013    -440.239    -585.797
  H      436.306    -443.688    -586.989
  H      438.605    -443.951    -585.357
  H      437.800    -442.316    -583.740
  H      435.052    -443.691    -583.952
  H      434.366    -441.194    -583.696
  H      441.387    -439.997    -590.223
  H      440.490    -439.043    -589.022
  H      434.892    -442.095    -582.241
  P      438.735    -444.406    -582.115
  C      438.499    -443.166    -579.864
  O      438.595    -444.427    -580.517
  O      439.883    -443.606    -582.646
  O      438.899    -445.970    -582.474
  H      439.846    -446.155    -582.600
  H      439.489    -442.723    -579.789
  H      438.080    -443.315    -578.859
  H      437.827    -442.499    -580.436
  H      434.095    -437.696    -585.748
  H      434.689    -436.829    -584.352
  H      433.384    -437.978    -584.176

 3  4  5  6  7  8  9  10  11  12  22  25  29  30  31  32 0
 6-311+G(2d,p)
 ****
 33  36  37 0
 6-311+G(2d,p)
 ****
 1  2  13  14  15  16  17  18  19  20  21  23  24  26 0
 3-21G
 ****
 27  28  34  35  38  39  40  41  42  43  44  45  46  47  48 0
 3-21G
 ****


