%nproc=1
%NoSave
%Mem=1900MB
#P OB98/GEN NMR

erre ene a

0 1
  C     -219.408    -882.283    -406.670
  O     -220.479    -882.434    -407.587
  P     -220.386    -881.600    -408.961
  C     -220.844    -883.630    -410.529
  O     -219.932    -882.645    -410.088
  C     -220.085    -884.792    -411.185
  O     -219.424    -885.590    -410.179
  C     -220.959    -885.749    -411.988
  O     -221.222    -885.226    -413.278
  C     -220.108    -887.013    -411.993
  O     -219.084    -886.937    -413.005
  C     -219.491    -886.984    -410.581
  N     -219.851    -891.482    -408.294
  C     -219.082    -891.088    -409.379
  N     -218.258    -892.025    -409.892
  N     -219.111    -889.895    -409.903
  C     -219.996    -889.074    -409.292
  C     -220.829    -889.341    -408.223
  C     -220.742    -890.648    -407.619
  O     -221.327    -891.010    -406.601
  N     -221.595    -888.252    -407.898
  C     -221.212    -887.315    -408.744
  N     -220.228    -887.757    -409.599
  O     -219.097    -880.681    -408.746
  O     -221.608    -880.810    -409.311
  H     -219.499    -886.909    -413.880
  H     -219.363    -879.779    -408.465
  H     -219.767    -892.408    -407.922
  H     -221.593    -886.309    -408.770
  H     -218.462    -887.364    -410.581
  H     -220.693    -887.901    -412.210
  H     -218.194    -892.974    -409.558
  H     -221.897    -885.942    -411.453
  H     -217.682    -891.761    -410.682
  H     -219.303    -884.359    -411.827
  H     -221.530    -883.189    -411.268
  H     -221.437    -883.997    -409.681
  P     -222.735    -885.250    -413.801
  C     -223.515    -882.858    -414.466
  O     -223.386    -883.828    -413.443
  O     -223.459    -886.265    -412.792
  O     -222.900    -885.687    -415.218
  H     -224.129    -886.784    -413.280
  H     -224.370    -882.230    -414.248
  H     -223.648    -883.327    -415.445
  H     -222.611    -882.237    -414.483
  H     -219.591    -882.886    -405.805
  H     -219.330    -881.256    -406.379
  H     -218.495    -882.593    -407.134

 3  4  5  6  7  8  9  10  11  12  23  26  30  31 0
 6-311+G(2d,p)
 ****
 33  35  36  37  38 0
 6-311+G(2d,p)
 ****
 1  2  13  14  15  16  17  18  19  20  21  22  24  25 0
 3-21G
 ****
 27  28  29  32  34  39  40  41  42  43  44  45  46  47  48  49 0
 3-21G
 ****


