%nproc=1
%NoSave
%Mem=1900MB
#P OB98/GEN NMR

erre ene a

0 1
  C     -896.460     331.059    1055.346
  O     -896.560     330.082    1054.325
  H     -895.780     331.836    1055.020
  H     -896.080     330.609    1056.259
  H     -897.450     331.516    1055.530
  P     -897.650     328.918    1054.463
  C     -896.190     327.810    1056.284
  O     -896.880     327.643    1055.057
  C     -895.250     326.621    1056.550
  O     -896.060     325.450    1056.821
  C     -894.320     326.274    1055.362
  O     -893.120     325.712    1055.910
  C     -895.150     325.203    1054.651
  O     -894.440     324.498    1053.679
  C     -895.650     324.409    1055.894
  N     -896.730     323.473    1055.644
  C     -896.440     322.115    1055.741
  O     -895.340     321.646    1056.021
  N     -897.480     321.262    1055.488
  C     -898.770     321.631    1055.182
  O     -899.680     320.821    1054.988
  C     -899.020     323.082    1055.083
  C     -897.980     323.925    1055.325
  O     -898.480     328.663    1053.249
  O     -898.540     329.395    1055.703
  H     -899.390     329.785    1055.380
  H     -893.550     324.295    1054.007
  H     -897.300     320.285    1055.552
  H     -900.000     323.421    1054.824
  H     -898.140     325.005    1055.276
  H     -894.800     323.884    1056.361
  H     -896.000     325.669    1054.140
  H     -894.070     327.128    1054.733
  H     -894.660     326.820    1057.461
  H     -896.930     327.886    1057.099
  H     -895.610     328.744    1056.240
  P     -891.760     326.543    1056.082
  C     -890.630     325.024    1054.302
  O     -890.540     325.604    1055.593
  O     -891.560     327.140    1057.446
  O     -891.830     327.695    1054.956
  H     -891.280     328.462    1055.243
  H     -889.758     324.433    1054.115
  H     -890.700     325.799    1053.567
  H     -891.500     324.403    1054.250

 6  7  8  9  10  11  12  13  14  15  16  27  31  32  33  34  35 0
 6-311+G(2d,p)
 ****
 36  37 0
 6-311+G(2d,p)
 ****
 1  2  3  4  5  17  18  19  20  21  22  23  24  25 0
 3-21G
 ****
 26  28  29  30  38  39  40  41  42  43  44  45 0
 3-21G
 ****


