%nproc=1
%NoSave
%Mem=1900MB
#P OB98/GEN NMR

erre ene a

0 1
  C     -330.878     779.835    -407.055
  O     -331.851     779.265    -406.193
  H     -329.931     779.296    -406.965
  H     -331.238     779.758    -408.084
  H     -330.727     780.890    -406.808
  P     -331.529     779.303    -404.622
  C     -330.447     777.593    -402.985
  O     -330.581     778.040    -404.326
  C     -330.535     776.074    -402.917
  O     -331.846     775.637    -403.322
  C     -329.544     775.340    -403.815
  O     -328.246     775.272    -403.242
  C     -330.207     773.964    -403.882
  O     -329.904     773.221    -402.682
  C     -331.700     774.320    -403.921
  N     -335.923     773.606    -406.733
  C     -335.711     773.579    -405.392
  N     -334.561     773.807    -404.719
  C     -333.561     774.091    -405.574
  C     -333.624     774.176    -406.949
  C     -334.881     773.908    -407.541
  N     -335.067     773.874    -408.910
  N     -332.378     774.482    -407.483
  C     -331.584     774.558    -406.434
  N     -332.253     774.343    -405.264
  O     -332.928     778.893    -403.960
  O     -331.035     780.615    -404.105
  H     -328.950     773.345    -402.511
  H     -333.406     779.701    -403.694
  H     -336.582     773.354    -404.785
  H     -330.526     774.763    -406.493
  H     -332.303     773.631    -403.327
  H     -329.856     773.363    -404.729
  H     -329.532     775.775    -404.825
  H     -330.396     775.784    -401.862
  H     -331.245     778.041    -402.370
  H     -335.806     773.242    -409.202
  H     -334.208     773.842    -409.455
  H     -329.481     777.942    -402.595
  P     -327.037     775.925    -404.070
  C     -325.936     775.502    -406.370
  O     -326.941     775.100    -405.451
  O     -325.747     775.432    -403.248
  O     -327.076     777.404    -404.193
  H     -325.215     776.210    -402.980
  H     -325.978     774.879    -407.239
  H     -324.974     775.409    -405.910
  H     -326.098     776.521    -406.653

 6  7  8  9  10  11  12  13  14  15  25  28  32  33  34  35 0
 6-311+G(2d,p)
 ****
 36  39  40 0
 6-311+G(2d,p)
 ****
 1  2  3  4  5  16  17  18  19  20  21  22  23  24 0
 3-21G
 ****
 26  27  29  30  31  37  38  41  42  43  44  45  46  47  48 0
 3-21G
 ****


