%nproc=1
%NoSave
%Mem=1900MB
#P OB98/GEN NMR

erre ene a

0 1
  C      -43.280    -129.033     -38.812
  O      -43.948    -129.822     -39.787
  P      -45.454    -129.408     -40.173
  C      -46.268    -130.480     -37.952
  O      -46.400    -130.425     -39.367
  C      -47.285    -131.448     -37.356
  O      -48.622    -131.045     -37.720
  C      -47.149    -132.886     -37.833
  O      -46.144    -133.594     -37.125
  C      -48.525    -133.435     -37.496
  O      -48.595    -133.742     -36.088
  C      -49.433    -132.246     -37.819
  N      -53.198    -134.293     -40.610
  C      -52.835    -134.468     -39.321
  N      -51.813    -133.894     -38.655
  C      -51.104    -133.092     -39.467
  C      -51.334    -132.845     -40.811
  C      -52.446    -133.480     -41.392
  N      -52.829    -133.279     -42.695
  N      -50.393    -131.968     -41.310
  C      -49.618    -131.681     -40.286
  N      -50.014    -132.328     -39.145
  O      -45.584    -129.902     -41.691
  O      -45.766    -127.958     -40.024
  H      -48.219    -132.976     -35.614
  H      -46.289    -129.402     -42.145
  H      -53.456    -135.153     -38.747
  H      -48.772    -131.007     -40.319
  H      -50.257    -132.142     -37.106
  H      -48.760    -134.357     -38.032
  H      -46.993    -132.934     -38.919
  H      -47.203    -131.394     -36.261
  H      -46.435    -129.483     -37.536
  H      -53.736    -133.620     -42.980
  H      -52.391    -132.522     -43.210
  H      -45.250    -130.797     -37.701
  P      -44.890    -134.126     -37.977
  C      -46.161    -136.096     -39.098
  O      -45.158    -135.688     -38.185
  O      -43.687    -134.075     -36.922
  O      -44.608    -133.331     -39.208
  H      -42.833    -133.981     -37.387
  H      -46.003    -137.148     -39.349
  H      -46.123    -135.506     -40.017
  H      -47.147    -135.989     -38.635
  H      -42.295    -129.419     -38.655
  H      -43.826    -129.064     -37.893
  H      -43.216    -128.021     -39.155

 3  4  5  6  7  8  9  10  11  12  22  25  29  30  31  32 0
 6-311+G(2d,p)
 ****
 33  36  37 0
 6-311+G(2d,p)
 ****
 1  2  13  14  15  16  17  18  19  20  21  23  24  26 0
 3-21G
 ****
 27  28  34  35  38  39  40  41  42  43  44  45  46  47  48 0
 3-21G
 ****


