%nproc=1
%NoSave
%Mem=1900MB
#P OB98/GEN NMR

erre ene a

0 1
  C     -123.555    -258.487     762.685
  O     -122.160    -258.285     762.493
  P     -121.459    -256.862     762.352
  C     -120.207    -256.899     764.658
  O     -121.183    -256.292     763.826
  C     -119.586    -255.921     765.671
  O     -118.908    -254.858     764.962
  C     -120.674    -255.256     766.515
  O     -121.200    -255.916     767.649
  C     -120.140    -253.862     766.801
  O     -119.457    -253.783     768.052
  C     -119.166    -253.613     765.642
  N     -120.983    -248.882     764.936
  C     -120.688    -249.534     766.119
  N     -120.955    -248.873     767.260
  N     -120.191    -250.747     766.172
  C     -120.057    -251.330     764.959
  C     -120.335    -250.794     763.723
  C     -120.826    -249.431     763.669
  O     -121.093    -248.801     762.653
  N     -120.095    -251.695     762.719
  C     -119.694    -252.777     763.344
  N     -119.650    -252.607     764.713
  O     -122.084    -255.928     761.372
  O     -119.979    -257.228     761.804
  H     -119.363    -252.842     768.285
  H     -119.709    -256.486     761.228
  H     -121.340    -247.943     764.954
  H     -119.421    -253.714     762.861
  H     -118.201    -253.252     766.015
  H     -120.961    -253.133     766.850
  H     -121.447    -247.990     767.290
  H     -121.544    -255.108     765.852
  H     -120.949    -249.423     768.123
  H     -118.821    -256.423     766.275
  H     -119.433    -257.306     764.003
  H     -120.644    -257.749     765.189
  P     -122.656    -256.581     767.770
  C     -121.494    -258.863     767.856
  O     -122.547    -258.107     767.293
  O     -123.491    -255.898     766.585
  O     -123.332    -256.371     769.089
  H     -124.450    -256.033     766.730
  H     -121.328    -259.752     767.246
  H     -121.765    -259.160     768.872
  H     -120.564    -258.274     767.890
  H     -123.758    -259.536     762.747
  H     -124.093    -258.068     761.860
  H     -123.863    -258.009     763.592

 3  4  5  6  7  8  9  10  11  12  23  26  30  31 0
 6-311+G(2d,p)
 ****
 33  35  36  37  38 0
 6-311+G(2d,p)
 ****
 1  2  13  14  15  16  17  18  19  20  21  22  24  25 0
 3-21G
 ****
 27  28  29  32  34  39  40  41  42  43  44  45  46  47  48  49 0
 3-21G
 ****


