%nproc=1
%NoSave
%Mem=1900MB
#P OB98/GEN NMR

erre ene a

0 1
  C      101.685     -79.759    -364.164
  O      101.659     -78.364    -363.959
  P      101.166     -77.364    -365.107
  C      103.536     -76.691    -365.860
  O      102.322     -77.337    -366.225
  C      104.143     -75.976    -367.073
  O      104.362     -76.960    -368.132
  C      103.229     -74.871    -367.635
  O      103.862     -73.598    -367.782
  C      102.701     -75.490    -368.918
  O      102.222     -74.548    -369.858
  C      103.887     -76.358    -369.353
  N      103.514     -77.353    -370.356
  C      103.237     -76.890    -371.637
  O      103.295     -75.711    -371.981
  N      102.818     -77.829    -372.537
  C      102.543     -79.136    -372.262
  O      102.074     -79.900    -373.094
  C      102.816     -79.559    -370.880
  C      103.303     -78.673    -370.010
  O      100.736     -76.014    -364.637
  O      100.012     -78.197    -365.842
  H      101.578     -73.972    -369.402
  H      100.299     -79.043    -366.226
  H      102.614     -77.507    -373.471
  H      102.597     -80.587    -370.630
  H      103.514     -78.957    -368.982
  H      104.700     -75.753    -369.756
  H      101.855     -76.137    -368.654
  H      102.391     -74.669    -366.957
  H      105.114     -75.572    -366.770
  H      104.240     -77.444    -365.499
  H      103.352     -75.990    -365.037
  P      103.101     -72.219    -368.057
  C      103.674     -72.189    -370.594
  O      102.672     -72.184    -369.598
  O      103.803     -70.996    -367.570
  O      101.702     -72.404    -367.297
  H      101.371     -71.535    -367.007
  H      103.291     -71.674    -371.479
  H      103.909     -73.222    -370.865
  H      104.583     -71.683    -370.254
  H      102.044     -80.243    -363.280
  H      102.334     -79.987    -364.984
  H      100.697     -80.106    -364.384

 3  4  5  6  7  8  9  10  11  12  13  23  28  29  30  31  32 0
 6-311+G(2d,p)
 ****
 33  34 0
 6-311+G(2d,p)
 ****
 1  2  14  15  16  17  18  19  20  21  22  24  25  26  27 0
 3-21G
 ****
 35  36  37  38  39  40  41  42  43  44  45 0
 3-21G
 ****


