%nproc=1
%NoSave
%Mem=1900MB
#P OB98/GEN NMR

erre ene a

0 1
  C      163.912     169.991    -116.051
  O      163.526     168.643    -116.214
  H      164.167     170.157    -115.001
  H      163.082     170.649    -116.318
  H      164.786     170.229    -116.662
  P      163.381     168.053    -117.696
  C      165.009     167.187    -119.499
  O      164.850     167.585    -118.144
  C      166.333     166.442    -119.695
  O      167.430     167.390    -119.550
  C      166.569     165.309    -118.685
  O      167.349     164.303    -119.343
  C      167.396     166.009    -117.624
  O      168.064     165.085    -116.795
  C      168.282     166.901    -118.497
  N      168.901     167.987    -117.738
  C      170.075     167.684    -117.062
  O      170.577     166.559    -117.053
  N      170.641     168.705    -116.349
  C      170.120     169.957    -116.203
  O      170.654     170.827    -115.526
  C      168.852     170.210    -116.905
  C      168.310     169.230    -117.633
  O      162.680     168.931    -118.677
  O      162.620     166.658    -117.493
  H      168.716     165.550    -116.226
  H      162.078     166.456    -118.279
  H      171.498     168.504    -115.860
  H      168.408     171.190    -116.801
  H      167.377     169.384    -118.164
  H      169.086     166.314    -118.960
  H      166.757     166.624    -116.980
  H      165.643     164.882    -118.294
  H      166.373     166.067    -120.725
  H      164.993     168.088    -120.120
  H      164.174     166.541    -119.789
  P      166.690     163.217    -120.321
  C      165.180     163.456    -122.395
  O      166.345     163.924    -121.720
  O      165.549     162.463    -119.720
  O      167.890     162.225    -120.695
  H      167.534     161.339    -120.895
  H      165.055     163.999    -123.309
  H      164.323     163.604    -121.772
  H      165.288     162.414    -122.611

 6  7  8  9  10  11  12  13  14  15  16  26  31  32  33  34  35 0
 6-311+G(2d,p)
 ****
 36  37 0
 6-311+G(2d,p)
 ****
 1  2  3  4  5  17  18  19  20  21  22  23  24  25 0
 3-21G
 ****
 27  28  29  30  38  39  40  41  42  43  44  45 0
 3-21G
 ****


