%nproc=1
%NoSave
%Mem=1900MB
#P OB98/GEN NMR

erre ene a

0 1
  C      304.379    -147.094     153.358
  O      305.217    -147.682     154.333
  H      303.940    -146.184     153.778
  H      303.570    -147.774     153.079
  H      304.962    -146.826     152.474
  P      305.861    -149.117     154.033
  C      308.158    -148.658     155.106
  O      306.938    -149.383     155.193
  C      307.976    -147.230     155.621
  O      307.502    -147.291     156.994
  C      309.264    -146.401     155.598
  O      308.929    -145.057     155.246
  C      309.732    -146.473     157.037
  O      310.575    -145.386     157.366
  C      308.410    -146.526     157.808
  N      308.592    -147.119     159.132
  C      308.308    -146.300     160.230
  O      307.908    -145.148     160.056
  N      308.541    -146.777     161.493
  C      309.067    -147.949     161.651
  N      309.310    -148.345     162.929
  C      309.411    -148.837     160.523
  C      309.151    -148.367     159.306
  O      306.370    -149.334     152.648
  O      304.683    -150.141     154.391
  H      310.960    -145.529     158.258
  H      304.145    -150.322     153.598
  H      309.856    -149.804     160.709
  H      309.379    -148.944     158.417
  H      307.989    -145.520     157.930
  H      310.300    -147.400     157.196
  H      310.015    -146.795     154.903
  H      307.186    -146.745     155.036
  H      309.080    -147.692     163.669
  H      308.457    -148.633     154.053
  H      309.754    -149.216     163.176
  H      308.935    -149.169     155.681
  P      309.105    -144.540     153.737
  C      307.030    -143.048     153.599
  O      308.455    -143.076     153.605
  O      308.666    -145.510     152.688
  O      310.678    -144.253     153.611
  H      310.959    -144.399     152.689
  H      306.694    -142.036     153.508
  H      306.661    -143.466     154.512
  H      306.665    -143.621     152.772

 6  7  8  9  10  11  12  13  14  15  16  26  30  31  32  33  35 0
 6-311+G(2d,p)
 ****
 37  38 0
 6-311+G(2d,p)
 ****
 1  2  3  4  5  17  18  19  20  21  22  23  24  25 0
 3-21G
 ****
 27  28  29  34  36  39  40  41  42  43  44  45  46 0
 3-21G
 ****


