%nproc=1
%NoSave
%Mem=1900MB
#P OB98/GEN NMR

erre ene a

0 1
  C     -141.583    -124.163    -177.476
  O     -141.366    -123.742    -178.808
  H     -142.267    -125.015    -177.481
  H     -142.033    -123.354    -176.895
  H     -140.641    -124.470    -177.012
  P     -140.297    -122.570    -179.037
  C     -142.033    -120.674    -179.444
  O     -141.022    -121.205    -178.600
  C     -142.308    -119.214    -179.066
  O     -142.831    -119.178    -177.711
  C     -141.050    -118.332    -179.095
  O     -141.406    -117.030    -179.565
  C     -140.642    -118.261    -177.635
  O     -139.856    -117.120    -177.315
  C     -142.013    -118.264    -176.947
  N     -141.941    -118.679    -175.550
  C     -141.741    -117.688    -174.595
  O     -141.692    -116.480    -174.835
  N     -141.585    -118.129    -173.304
  C     -141.586    -119.429    -172.890
  O     -141.419    -119.766    -171.723
  C     -141.794    -120.434    -173.945
  C     -141.958    -120.018    -175.207
  O     -140.219    -122.448    -180.634
  O     -138.960    -122.785    -178.412
  H     -139.523    -123.033    -180.985
  H     -140.358    -116.324    -177.580
  H     -141.440    -117.422    -172.598
  H     -141.796    -121.478    -173.659
  H     -142.098    -120.734    -176.010
  H     -142.479    -117.274    -177.017
  H     -140.070    -119.154    -177.359
  H     -140.258    -118.748    -179.719
  H     -143.087    -118.814    -179.726
  H     -142.951    -121.256    -179.316
  H     -141.707    -120.739    -180.487
  P     -141.674    -116.861    -181.144
  C     -139.442    -115.661    -181.798
  O     -140.223    -116.845    -181.833
  O     -142.166    -115.345    -181.219
  O     -142.632    -117.872    -181.682
  H     -141.711    -114.754    -180.597
  H     -138.513    -115.831    -182.301
  H     -139.252    -115.389    -180.781
  H     -139.972    -114.870    -182.286

 6  7  8  9  10  11  12  13  14  15  16  27  31  32  33  34  35 0
 6-311+G(2d,p)
 ****
 36  37 0
 6-311+G(2d,p)
 ****
 1  2  3  4  5  17  18  19  20  21  22  23  24  25 0
 3-21G
 ****
 26  28  29  30  38  39  40  41  42  43  44  45 0
 3-21G
 ****


