%nproc=1
%NoSave
%Mem=1900MB
#P OB98/GEN NMR

erre ene a

0 1
  C     -499.040     455.203    -138.692
  O     -498.662     455.422    -137.352
  H     -499.339     454.157    -138.804
  H     -498.191     455.394    -139.356
  H     -499.882     455.843    -138.969
  P     -498.333     456.934    -136.916
  C     -495.920     456.690    -137.841
  O     -496.738     457.023    -136.735
  C     -494.799     457.719    -138.006
  O     -495.372     458.964    -138.490
  C     -494.049     458.023    -136.708
  O     -492.660     458.198    -137.010
  C     -494.637     459.346    -136.252
  O     -493.744     460.089    -135.421
  C     -494.976     460.014    -137.589
  N     -496.015     461.025    -137.437
  C     -495.674     462.173    -136.720
  O     -494.546     462.296    -136.233
  N     -496.627     463.133    -136.502
  C     -497.851     462.920    -136.897
  N     -498.765     463.896    -136.630
  C     -498.273     461.693    -137.602
  C     -497.309     460.801    -137.843
  O     -498.879     457.012    -135.413
  O     -498.916     457.990    -137.792
  H     -494.230     460.865    -135.060
  H     -499.200     457.912    -135.202
  H     -499.307     461.553    -137.888
  H     -497.526     459.865    -138.343
  H     -494.080     460.491    -138.018
  H     -495.552     459.161    -135.676
  H     -494.155     457.238    -135.951
  H     -494.115     457.363    -138.784
  H     -498.440     464.717    -136.129
  H     -496.532     456.684    -138.748
  H     -499.744     463.817    -136.853
  H     -495.501     455.687    -137.696
  P     -491.726     456.901    -136.894
  C     -490.580     457.374    -134.607
  O     -490.436     457.294    -136.018
  O     -491.143     456.725    -138.374
  O     -492.454     455.679    -136.438
  H     -491.552     455.957    -138.803
  H     -489.642     457.643    -134.168
  H     -490.893     456.424    -134.226
  H     -491.313     458.115    -134.365

 6  7  8  9  10  11  12  13  14  15  16  26  30  31  32  33  35 0
 6-311+G(2d,p)
 ****
 37  38 0
 6-311+G(2d,p)
 ****
 1  2  3  4  5  17  18  19  20  21  22  23  24  25 0
 3-21G
 ****
 27  28  29  34  36  39  40  41  42  43  44  45  46 0
 3-21G
 ****


