%nproc=1
%NoSave
%Mem=1900MB
#P OB98/GEN NMR

erre ene a

0 1
  C     -418.655     143.042    -199.834
  O     -417.430     143.287    -200.505
  P     -417.292     144.616    -201.390
  C     -416.126     145.818    -199.394
  O     -417.149     145.860    -200.379
  C     -415.050     146.869    -199.689
  O     -415.657     148.198    -199.647
  C     -413.886     146.867    -198.695
  O     -412.696     147.230    -199.420
  C     -414.261     147.991    -197.743
  O     -413.159     148.490    -197.001
  C     -414.870     148.989    -198.730
  N     -415.674     150.019    -198.080
  C     -415.001     151.029    -197.399
  O     -413.769     151.099    -197.319
  N     -415.780     151.946    -196.747
  C     -417.140     151.899    -196.635
  O     -417.775     152.683    -195.933
  C     -417.805     150.811    -197.365
  C     -417.057     149.934    -198.046
  O     -418.758     144.796    -202.012
  O     -416.238     144.553    -202.448
  H     -413.512     149.051    -196.290
  H     -418.782     144.473    -202.929
  H     -415.306     152.687    -196.260
  H     -418.888     150.762    -197.314
  H     -417.518     149.112    -198.587
  H     -414.077     149.470    -199.322
  H     -415.010     147.625    -197.028
  H     -413.740     145.904    -198.184
  H     -414.685     146.709    -200.709
  H     -415.669     144.825    -199.392
  H     -416.564     145.985    -198.402
  P     -411.293     146.652    -198.893
  C     -411.412     144.558    -200.455
  O     -411.316     145.070    -199.144
  O     -411.481     146.800    -197.308
  O     -410.101     147.394    -199.424
  H     -412.362     146.524    -197.010
  H     -410.891     145.187    -201.179
  H     -412.465     144.485    -200.737
  H     -410.970     143.554    -200.481
  H     -418.587     142.123    -199.291
  H     -419.447     142.975    -200.550
  H     -418.856     143.844    -199.154

 3  4  5  6  7  8  9  10  11  12  13  23  28  29  30  31  32 0
 6-311+G(2d,p)
 ****
 33  34 0
 6-311+G(2d,p)
 ****
 1  2  14  15  16  17  18  19  20  21  22  24  25  26 0
 3-21G
 ****
 27  35  36  37  38  39  40  41  42  43  44  45 0
 3-21G
 ****


