%nproc=1
%NoSave
%Mem=1900MB
#P OB98/GEN NMR

erre ene a

0 1
  C      891.132      36.884     222.329
  O      890.168      36.577     223.317
  H      891.583      35.950     221.978
  H      891.915      37.511     222.760
  H      890.671      37.392     221.480
  P      889.241      37.788     223.816
  C      890.447      37.642     226.114
  O      889.208      37.704     225.422
  C      890.217      37.275     227.579
  O      889.740      38.425     228.317
  C      889.184      36.171     227.792
  O      889.750      34.879     227.617
  C      888.815      36.418     229.246
  O      889.846      35.904     230.109
  C      888.777      37.954     229.311
  N      884.624      40.014     231.353
  C      885.761      39.512     231.964
  N      885.792      39.559     233.314
  N      886.777      39.002     231.315
  C      886.603      39.012     229.968
  C      885.528      39.483     229.251
  C      884.416      40.044     229.980
  O      883.398      40.530     229.495
  N      885.722      39.335     227.898
  C      886.903      38.748     227.803
  N      887.478      38.533     229.030
  O      887.766      37.325     223.393
  O      889.575      39.126     223.250
  H      890.698      36.143     229.702
  H      887.255      38.115     223.123
  H      883.867      40.381     231.908
  H      887.381      38.473     226.875
  H      889.105      38.337     230.282
  H      887.876      35.925     229.533
  H      885.024      39.891     233.877
  H      888.300      36.317     227.158
  H      886.624      39.234     233.786
  H      891.184      36.989     228.011
  H      890.938      38.621     226.061
  H      891.084      36.891     225.632
  P      889.264      34.017     226.355
  C      889.653      31.672     227.398
  O      890.067      32.631     226.431
  O      889.950      34.780     225.118
  O      887.781      33.914     226.187
  H      889.461      34.595     224.296
  H      890.277      30.805     227.331
  H      888.636      31.395     227.213
  H      889.735      32.095     228.377

 6  7  8  9  10  11  12  13  14  15  26  29  33  34 0
 6-311+G(2d,p)
 ****
 36  38  39  40  41 0
 6-311+G(2d,p)
 ****
 1  2  3  4  5  16  17  18  19  20  21  22  23  24  25 0
 3-21G
 ****
 27  28  30  31  32  35  37  42  43  44  45  46  47 0
 3-21G
 ****
 48  49 0
 3-21G
 ****


