%nproc=1
%NoSave
%Mem=1900MB
#P OB98/GEN NMR

erre ene a

0 1
  C     -293.682     915.600     398.722
  O     -292.437     916.261     398.772
  H     -293.854     915.253     397.696
  H     -294.483     916.292     398.992
  H     -293.691     914.736     399.394
  P     -291.905     916.723     400.217
  C     -290.876     915.439     402.230
  O     -291.098     915.473     400.828
  C     -290.110     914.174     402.619
  O     -290.888     913.013     402.224
  C     -288.732     914.066     401.964
  O     -287.819     913.499     402.906
  C     -288.956     913.082     400.819
  O     -287.760     912.405     400.441
  C     -290.052     912.176     401.403
  N     -290.812     911.510     400.349
  C     -290.143     910.509     399.631
  O     -288.970     910.241     399.894
  N     -290.798     909.885     398.601
  C     -291.989     910.289     398.262
  N     -292.568     909.649     397.207
  C     -292.701     911.379     398.942
  C     -292.065     911.938     399.977
  O     -293.235     916.770     401.109
  O     -291.159     918.014     400.240
  H     -288.008     911.548     400.026
  H     -293.177     917.460     401.794
  H     -293.680     911.692     398.607
  H     -292.508     912.752     400.536
  H     -289.612     911.411     402.060
  H     -289.337     913.618     399.944
  H     -288.342     915.025     401.608
  H     -290.023     914.145     403.713
  H     -292.041     908.914     396.752
  H     -291.847     915.444     402.739
  H     -293.470     909.902     396.826
  H     -290.315     916.335     402.533
  P     -286.401     914.234     403.065
  C     -285.602     916.288     404.438
  O     -286.460     915.161     404.374
  O     -286.393     915.278     401.852
  O     -285.234     913.303     402.999
  H     -285.759     914.987     401.165
  H     -285.757     916.802     405.364
  H     -285.818     916.948     403.624
  H     -284.584     915.965     404.375

 6  7  8  9  10  11  12  13  14  15  16  26  30  31  32  33  35 0
 6-311+G(2d,p)
 ****
 37  38 0
 6-311+G(2d,p)
 ****
 1  2  3  4  5  17  18  19  20  21  22  23  24  25 0
 3-21G
 ****
 27  28  29  34  36  39  40  41  42  43  44  45  46 0
 3-21G
 ****


