%nproc=1
%NoSave
%Mem=1900MB
#P OB98/GEN NMR

erre ene a

0 1
  C     -351.194    -212.379     426.939
  O     -350.571    -213.348     426.121
  H     -351.618    -212.879     427.815
  H     -352.000    -211.885     426.392
  H     -350.463    -211.641     427.276
  P     -349.844    -212.810     424.796
  C     -347.745    -211.999     426.105
  O     -348.845    -211.647     425.273
  C     -346.823    -210.797     426.279
  O     -346.274    -210.421     424.996
  C     -347.520    -209.548     426.807
  O     -347.713    -209.602     428.211
  C     -346.546    -208.457     426.373
  O     -345.461    -208.318     427.302
  C     -346.022    -208.998     425.035
  N     -346.747    -204.520     422.710
  C     -346.018    -204.868     423.790
  N     -345.860    -206.093     424.336
  C     -346.552    -207.013     423.642
  C     -347.345    -206.805     422.524
  C     -347.432    -205.486     422.052
  N     -348.206    -205.124     420.972
  N     -347.931    -207.988     422.123
  C     -347.490    -208.896     422.971
  N     -346.651    -208.351     423.901
  O     -351.014    -212.021     424.040
  O     -349.230    -213.863     423.935
  H     -344.773    -207.788     426.851
  H     -351.435    -212.609     423.387
  H     -345.491    -204.056     424.282
  H     -347.757    -209.944     422.958
  H     -344.940    -208.859     424.928
  H     -347.039    -207.489     426.301
  H     -348.474    -209.398     426.291
  H     -345.994    -211.086     426.933
  H     -347.186    -212.818     425.634
  H     -348.126    -212.338     427.073
  H     -348.239    -204.157     420.705
  H     -348.801    -205.819     420.543
  P     -348.463    -208.381     428.926
  C     -350.941    -209.084     429.308
  O     -350.002    -208.421     428.469
  O     -347.879    -207.096     428.171
  O     -348.258    -208.300     430.402
  H     -347.183    -206.674     428.709
  H     -351.915    -209.024     428.870
  H     -350.953    -208.615     430.270
  H     -350.661    -210.111     429.415

 6  7  8  9  10  11  12  13  14  15  25  28  32  33  34  35 0
 6-311+G(2d,p)
 ****
 36  37  40 0
 6-311+G(2d,p)
 ****
 1  2  3  4  5  16  17  18  19  20  21  22  23  24 0
 3-21G
 ****
 26  27  29  30  31  38  39 41  42  43  44  45  46  47  48 0
 3-21G
 ****


