%nproc=1
%NoSave
%Mem=1900MB
#P OB98/GEN NMR

erre ene a

0 1
  C       43.084    -488.444    -182.795
  O       43.099    -487.031    -182.815
  H       43.645    -488.819    -181.936
  H       42.047    -488.785    -182.713
  H       43.515    -488.840    -183.722
  P       44.536    -486.322    -182.943
  C       46.722    -486.373    -181.532
  O       45.350    -486.746    -181.625
  C       47.125    -486.277    -180.066
  O       46.537    -485.101    -179.456
  C       46.670    -487.455    -179.211
  O       47.531    -488.574    -179.336
  C       46.766    -486.840    -177.821
  O       48.141    -486.800    -177.397
  C       46.241    -485.422    -178.074
  N       42.429    -486.227    -174.748
  C       43.752    -486.506    -174.690
  N       44.700    -486.263    -175.620
  C       44.163    -485.672    -176.704
  C       42.839    -485.339    -176.910
  C       41.941    -485.638    -175.866
  N       40.592    -485.373    -175.926
  N       42.658    -484.781    -178.163
  C       43.870    -484.744    -178.682
  N       44.813    -485.282    -177.846
  O       44.212    -484.773    -182.692
  O       45.260    -486.554    -184.228
  H       48.165    -486.270    -176.579
  H       44.928    -484.218    -183.058
  H       44.091    -486.983    -173.780
  H       44.113    -484.342    -179.658
  H       46.745    -484.669    -177.448
  H       46.212    -487.406    -177.069
  H       45.627    -487.725    -179.411
  H       48.220    -486.160    -180.021
  H       46.857    -485.398    -182.015
  H       40.013    -485.792    -175.210
  H       40.200    -485.073    -176.808
  H       47.331    -487.121    -182.049
  P       46.855    -490.034    -179.264
  C       45.509    -491.258    -177.406
  O       46.476    -490.261    -177.722
  O       48.097    -491.007    -179.492
  O       45.760    -490.261    -180.246
  H       47.807    -491.865    -179.881
  H       45.364    -491.291    -176.346
  H       45.854    -492.211    -177.748
  H       44.582    -491.021    -177.886

 6  7  8  9  10  11  12  13  14  15  25  28  32  33  34  35 0
 6-311+G(2d,p)
 ****
 36  39  40 0
 6-311+G(2d,p)
 ****
 1  2  3  4  5  16  17  18  19  20  21  22  23  24 0
 3-21G
 ****
 26  27  29  30  31  37  38  41  42  43  44  45  46  47 0
 3-21G
 ****
 48 0
 3-21G
 ****


