%nproc=1
%NoSave
%Mem=1900MB
#P OB98/GEN NMR

erre ene a

0 1
  C     -204.072      52.162     249.418
  O     -205.224      51.852     250.176
  H     -204.201      51.762     248.408
  H     -203.189      51.697     249.865
  H     -203.932      53.244     249.348
  P     -205.361      52.457     251.654
  C     -204.276      50.441     252.846
  O     -204.177      51.824     252.530
  C     -203.075      50.013     253.688
  O     -201.852      50.210     252.945
  C     -202.911      50.810     254.978
  O     -203.838      50.390     255.960
  C     -201.456      50.520     255.310
  O     -201.318      49.242     255.948
  C     -200.810      50.509     253.906
  N     -200.135      51.767     253.580
  C     -198.936      52.017     254.240
  O     -198.458      51.257     255.082
  N     -198.313      53.193     253.916
  C     -198.817      54.171     253.107
  O     -198.259      55.251     252.922
  C     -200.097      53.864     252.456
  C     -200.690      52.695     252.717
  O     -206.718      52.367     252.267
  O     -204.900      53.982     251.479
  H     -200.358      49.058     255.994
  H     -205.685      54.564     251.499
  H     -197.449      53.399     254.394
  H     -200.524      54.608     251.797
  H     -201.638      52.454     252.251
  H     -200.074      49.698     253.833
  H     -201.030      51.264     255.984
  H     -203.020      51.881     254.772
  H     -203.168      48.939     253.903
  H     -204.291      49.867     251.915
  H     -205.212      50.265     253.388
  P     -204.387      51.440     257.037
  C     -202.815      50.483     258.831
  O     -203.244      51.652     258.141
  O     -205.746      51.144     257.581
  O     -204.387      52.833     256.246
  H     -205.297      53.184     256.207
  H     -202.056      50.745     259.538
  H     -202.421      49.779     258.129
  H     -203.646      50.047     259.345

 6  7  8  9  10  11  12  13  14  15  16  26  31  32  33  34  35 0
 6-311+G(2d,p)
 ****
 36  37 0
 6-311+G(2d,p)
 ****
 1  2  3  4  5  17  18  19  20  21  22  23  24  25 0
 3-21G
 ****
 27  28  29  30  38  39  40  41  42  43  44  45 0
 3-21G
 ****


