%nproc=1
%NoSave
%Mem=1900MB
#P OB98/GEN NMR

erre ene a

0 1
  C      -55.983     423.088     671.122
  O      -55.703     424.461     670.818
  P      -54.206     424.856     670.402
  C      -55.174     425.985     668.289
  O      -54.274     426.104     669.388
  C      -55.978     427.282     668.111
  O      -57.118     427.260     669.013
  C      -55.216     428.574     668.451
  O      -54.467     429.210     667.410
  C      -56.366     429.513     668.797
  O      -56.919     430.082     667.591
  C      -57.396     428.599     669.453
  N      -59.530     430.711     673.597
  C      -59.785     430.850     672.288
  N      -59.172     430.251     671.243
  C      -58.204     429.428     671.674
  C      -57.827     429.181     672.984
  C      -58.538     429.872     673.982
  N      -58.259     429.742     675.328
  N      -56.780     428.281     673.030
  C      -56.523     427.999     671.765
  N      -57.366     428.659     670.908
  O      -53.324     423.729     669.977
  O      -53.648     425.543     671.746
  H      -57.730     430.552     667.856
  H      -52.710     425.298     671.853
  H      -60.594     431.532     672.032
  H      -55.742     427.331     671.433
  H      -58.421     428.840     669.151
  H      -56.034     430.359     669.414
  H      -54.574     428.427     669.327
  H      -56.355     427.335     667.077
  H      -55.858     425.151     668.457
  H      -58.786     430.304     675.975
  H      -57.484     429.166     675.615
  H      -54.583     425.732     667.409
  P      -53.278     430.230     667.743
  C      -51.269     428.712     667.035
  O      -52.078     429.829     666.755
  O      -52.904     430.313     669.185
  O      -53.814     431.599     667.117
  H      -53.867     431.610     666.151
  H      -50.665     428.476     666.163
  H      -51.877     427.837     667.275
  H      -50.601     428.937     667.873
  H      -57.016     422.983     671.380
  H      -55.376     422.774     671.946
  H      -55.766     422.482     670.267

 3  4  5  6  7  8  9  10  11  12  22  25  29  30  31  32 0
 6-311+G(2d,p)
 ****
 33  36  37 0
 6-311+G(2d,p)
 ****
 1  2  13  14  15  16  17  18  19  20  21  23  24  26 0
 3-21G
 ****
 27  28  34  35  38  39  40  41  42  43  44  45  46  47  48 0
 3-21G
 ****


