%nproc=1
%NoSave
%Mem=1900MB
#P OB98/GEN NMR

erre ene a

0 1
  C       97.741     402.191      47.760
  O       98.889     403.012      47.824
  H       97.851     401.500      46.919
  H       96.844     402.798      47.603
  H       97.640     401.614      48.685
  P       98.873     404.181      48.929
  C      101.416     403.805      49.377
  O      100.397     404.697      48.950
  C      102.729     404.562      49.562
  O      103.407     404.714      48.292
  C      102.569     405.979      50.106
  O      102.332     406.019      51.502
  C      103.933     406.548      49.751
  O      104.924     406.028      50.654
  C      104.122     405.983      48.327
  N      103.624     406.883      47.283
  C      104.376     408.039      47.037
  O      105.398     408.272      47.679
  N      103.926     408.930      46.091
  C      102.841     408.680      45.426
  N      102.447     409.602      44.503
  C      102.026     407.471      45.641
  C      102.470     406.626      46.569
  O       98.755     403.380      50.310
  O       97.850     405.248      48.741
  H      104.692     406.357      51.542
  H       98.886     403.999      51.069
  H      101.121     407.309      45.072
  H      101.924     405.711      46.783
  H      105.182     405.769      48.124
  H      103.979     407.634      49.820
  H      101.800     406.538      49.562
  H      103.377     403.956      50.208
  H      102.996     410.447      44.422
  H      101.534     403.024      48.614
  H      101.543     409.570      44.046
  H      101.134     403.335      50.325
  P      101.083     406.891      52.015
  C      100.404     405.343      53.995
  O      100.922     406.605      53.583
  O       99.827     406.145      51.368
  O      101.134     408.339      51.633
  H       99.127     406.784      51.131
  H      100.358     405.308      55.063
  H      101.043     404.562      53.639
  H       99.422     405.212      53.591

 6  7  8  9  10  11  12  13  14  15  16  26  30  31  32  33  35 0
 6-311+G(2d,p)
 ****
 37  38 0
 6-311+G(2d,p)
 ****
 1  2  3  4  5  17  18  19  20  21  22  23  24  25 0
 3-21G
 ****
 27  28  29  34  36  39  40  41  42  43  44  45  46 0
 3-21G
 ****


