%nproc=1
%NoSave
%Mem=1900MB
#P OB98/GEN NMR

erre ene a

0 1
  C     -235.201     246.239     -12.025
  O     -234.603     246.317     -10.737
  P     -233.009     246.146     -10.650
  C     -233.482     243.650     -10.124
  O     -232.728     244.586     -10.887
  C     -232.715     242.341      -9.974
  O     -232.586     241.703     -11.257
  C     -231.295     242.493      -9.450
  O     -231.264     242.637      -8.037
  C     -230.679     241.170      -9.881
  O     -231.022     240.145      -8.932
  C     -231.374     240.909     -11.227
  N     -227.739     239.361     -14.402
  C     -228.328     238.702     -13.342
  N     -227.909     237.437     -13.109
  N     -229.245     239.233     -12.575
  C     -229.596     240.484     -12.949
  C     -229.083     241.243     -13.978
  C     -228.033     240.664     -14.785
  O     -227.426     241.225     -15.698
  N     -229.703     242.466     -14.054
  C     -230.612     242.432     -13.101
  N     -230.566     241.263     -12.382
  O     -232.711     246.342      -9.090
  O     -232.225     247.098     -11.489
  H     -230.620     239.316      -9.250
  H     -231.792     246.651      -8.962
  H     -227.052     238.899     -14.968
  H     -231.315     243.225     -12.897
  H     -231.673     239.861     -11.325
  H     -229.585     241.206      -9.932
  H     -227.305     236.934     -13.740
  H     -230.777     243.320      -9.950
  H     -228.357     236.926     -12.360
  H     -233.299     241.676      -9.323
  H     -234.432     243.451     -10.633
  H     -233.695     244.087      -9.141
  P     -230.108     243.577      -7.435
  C     -228.791     241.512      -6.564
  O     -228.796     242.658      -7.396
  O     -230.520     243.729      -5.897
  O     -229.970     244.897      -8.118
  H     -230.164     244.563      -5.533
  H     -229.774     241.032      -6.539
  H     -228.500     241.800      -5.549
  H     -228.063     240.797      -6.953
  H     -236.259     246.369     -11.935
  H     -234.995     245.282     -12.457
  H     -234.799     247.007     -12.652

 3  4  5  6  7  8  9  10  11  12  23  26  30  31  33  0
 6-311+G(2d,p)
 ****
 35  36  37  38 0
 6-311+G(2d,p)
 ****
 1  2  13  14  15  16  17  18  19  20  21  22  24  25  27  28  29 0
 3-21G
 ****
 32  34  39  40  41  42  43  44  45  46  47  48  49 0
 3-21G
 ****


