%nproc=1
%NoSave
%Mem=1900MB
#P OB98/GEN NMR

erre ene a

0 1
  C      438.601      60.529      38.233
  O      439.901      60.213      38.692
  H      438.564      61.568      37.887
  H      438.345      59.871      37.396
  H      437.872      60.382      39.037
  P      440.480      61.097      39.896
  C      442.198      59.299      40.681
  O      441.988      60.587      40.107
  C      443.659      59.161      41.090
  O      444.493      59.025      39.920
  C      444.204      60.370      41.856
  O      443.870      60.343      43.233
  C      445.700      60.187      41.645
  O      446.190      59.152      42.513
  C      445.749      59.719      40.178
  N      448.464      61.506      36.219
  C      448.542      60.350      36.919
  N      447.766      59.941      37.949
  C      446.825      60.858      38.222
  C      446.629      62.078      37.599
  C      447.503      62.396      36.549
  N      447.453      63.593      35.856
  N      445.576      62.759      38.184
  C      445.142      61.960      39.138
  N      445.888      60.809      39.225
  O      439.727      60.522      41.191
  O      440.344      62.574      39.749
  H      447.109      58.960      42.239
  H      439.834      61.133      41.947
  H      449.328      59.662      36.613
  H      444.308      62.165      39.800
  H      446.559      59.012      39.987
  H      446.268      61.093      41.861
  H      443.891      61.310      41.388
  H      443.769      58.244      41.687
  H      441.945      58.529      39.941
  H      448.212      63.795      35.223
  H      446.833      64.319      36.190
  H      441.545      59.185      41.558
  P      443.188      61.652      43.863
  C      441.942      60.209      45.622
  O      442.821      61.300      45.380
  O      441.760      61.700      43.135
  O      443.967      62.916      43.656
  H      441.462      62.623      43.006
  H      441.793      60.098      46.676
  H      442.370      59.312      45.226
  H      441.002      60.396      45.147

 6  7  8  9  10  11  12  13  14  15  25  28  32  33  34  35 0
 6-311+G(2d,p)
 ****
 36  39  40 0
 6-311+G(2d,p)
 ****
 1  2  3  4  5  16  17  18  19  20  21  22  23  24 0
 3-21G
 ****
 26  27  29  30  31  37  38  41  42  43  44  45  46  47 0
 3-21G
 ****
 48 0
 3-21G
 ****


