%nproc=1
%NoSave
%Mem=1900MB
#P OB98/GEN NMR

erre ene a

0 1
  C      367.394      66.693     -72.917
  O      367.524      65.976     -71.707
  H      368.386      66.836     -73.348
  H      366.952      67.676     -72.725
  H      366.776      66.143     -73.631
  P      366.195      65.470     -70.959
  C      365.982      67.519     -69.398
  O      365.411      66.783     -70.472
  C      364.893      68.016     -68.443
  O      364.001      68.908     -69.179
  C      364.012      66.894     -67.840
  O      363.584      67.350     -66.545
  C      362.860      66.876     -68.829
  O      361.770      66.119     -68.373
  C      362.660      68.388     -69.017
  N      361.819      68.771     -70.142
  C      360.552      69.283     -69.856
  O      360.095      69.428     -68.723
  N      359.795      69.623     -70.943
  C      360.173      69.522     -72.254
  O      359.449      69.873     -73.184
  C      361.514      68.973     -72.489
  C      362.266      68.633     -71.443
  O      366.398      64.426     -69.914
  O      365.270      64.933     -72.154
  H      365.310      63.962     -72.186
  H      361.482      66.470     -67.502
  H      358.876      69.997     -70.756
  H      361.836      68.867     -73.518
  H      363.269      68.234     -71.581
  H      362.261      68.824     -68.095
  H      363.180      66.404     -69.763
  H      364.546      65.946     -67.736
  H      365.362      68.617     -67.650
  H      366.528      68.369     -69.817
  H      366.689      66.875     -68.857
  P      364.472      67.191     -65.214
  C      362.879      65.766     -63.751
  O      364.077      65.797     -64.521
  O      364.391      68.367     -64.295
  O      365.972      66.955     -65.732
  H      366.599      67.262     -65.049
  H      362.738      64.784     -63.350
  H      362.047      66.019     -64.375
  H      362.952      66.471     -62.950

 6  7  8  9  10  11  12  13  14  15  16  27  31  32  33  34  35 0
 6-311+G(2d,p)
 ****
 36  37 0
 6-311+G(2d,p)
 ****
 1  2  3  4  5  17  18  19  20  21  22  23  24  25 0
 3-21G
 ****
 26  28  29  30  38  39  40  41  42  43  44  45 0
 3-21G
 ****


