%nproc=1
%NoSave
%Mem=1900MB
#P OB98/GEN NMR

erre ene a

0 1
  C     1185.740    -897.900     -98.343
  O     1186.502    -898.950     -98.909
  P     1187.966    -898.610     -99.491
  C     1189.150    -899.000     -97.205
  O     1188.857    -898.100     -98.250
  C     1190.420    -898.570     -96.474
  O     1191.535    -898.660     -97.389
  C     1190.389    -897.130     -95.933
  O     1191.177    -897.120     -94.730
  C     1191.105    -896.350     -97.017
  O     1191.624    -895.110     -96.537
  C     1192.157    -897.350     -97.439
  N     1196.190    -896.110    -100.237
  C     1196.040    -896.190     -98.862
  N     1197.144    -895.970     -98.145
  N     1194.930    -896.480     -98.260
  C     1193.898    -896.690     -99.113
  C     1193.902    -896.620    -100.492
  C     1195.152    -896.330    -101.143
  O     1195.335    -896.350    -102.363
  N     1192.651    -896.820    -101.000
  C     1191.910    -897.110     -99.953
  N     1192.639    -897.080     -98.793
  O     1187.692    -897.260    -100.322
  O     1188.620    -899.690    -100.308
  H     1192.316    -895.310     -95.867
  H     1187.536    -897.480    -101.262
  H     1197.089    -895.910    -100.660
  H     1190.857    -897.350     -99.964
  H     1193.033    -897.360     -96.776
  H     1190.406    -896.130     -97.835
  H     1198.071    -895.760     -98.535
  H     1189.384    -896.770     -95.732
  H     1197.103    -896.030     -97.136
  H     1190.600    -899.280     -95.661
  H     1189.326    -900.000     -97.641
  H     1188.292    -899.080     -96.512
  P     1190.605    -896.310     -93.469
  C     1189.751    -898.510     -92.410
  O     1189.440    -897.190     -92.820
  O     1189.795    -895.100     -94.145
  O     1191.651    -895.800     -92.538
  H     1189.839    -894.310     -93.577
  H     1189.044    -898.830     -91.625
  H     1190.754    -898.580     -91.997
  H     1189.685    -899.180     -93.262
  H     1184.800    -898.284     -98.005
  H     1185.572    -897.144     -99.081
  H     1186.272    -897.479     -97.516

 3  4  5  6  7  8  9  10  11  12  23  26  30  31 0
 6-311+G(2d,p)
 ****
 33  35  36  37  38 0
 6-311+G(2d,p)
 ****
 1  2  13  14  15  16  17  18  19  20  21  22  24  25 0
 3-21G
 ****
 27  28  29  32  34  39  40  41  42  43  44  45  46  47  48  49 0
 3-21G
 ****


