%nproc=1
%NoSave
%Mem=1900MB
#P OB98/GEN NMR

erre ene a

0 1
  C     -154.152    -289.580     -89.678
  O     -153.991    -288.506     -90.585
  H     -153.175    -289.959     -89.364
  H     -154.690    -289.218     -88.800
  H     -154.731    -290.381     -90.144
  P     -153.126    -288.810     -91.902
  C     -150.906    -288.226     -90.692
  O     -151.655    -289.207     -91.395
  C     -149.652    -288.850     -90.092
  O     -150.010    -289.868     -89.135
  C     -148.740    -289.541     -91.097
  O     -147.940    -288.613     -91.820
  C     -147.896    -290.402     -90.164
  O     -146.855    -289.601     -89.576
  C     -148.913    -290.817     -89.091
  N     -147.764    -295.789     -89.676
  C     -146.981    -294.697     -89.513
  N     -147.355    -293.407     -89.376
  C     -148.693    -293.293     -89.401
  C     -149.615    -294.315     -89.555
  C     -149.102    -295.614     -89.706
  N     -149.910    -296.719     -89.886
  N     -150.902    -293.820     -89.518
  C     -150.760    -292.521     -89.340
  N     -149.444    -292.156     -89.271
  O     -152.913    -287.360     -92.553
  O     -153.749    -289.759     -92.873
  H     -146.424    -290.156     -88.899
  H     -152.928    -287.444     -93.524
  H     -145.912    -294.884     -89.489
  H     -151.580    -291.815     -89.256
  H     -148.480    -290.755     -88.087
  H     -147.415    -291.238     -90.673
  H     -149.311    -290.189     -91.772
  H     -149.107    -288.059     -89.555
  H     -151.523    -287.810     -89.887
  H     -149.501    -297.633     -89.787
  H     -150.914    -296.577     -89.900
  H     -150.640    -287.423     -91.386
  P     -147.752    -288.868     -93.396
  C     -145.504    -290.037     -92.835
  O     -146.756    -290.121     -93.510
  O     -146.844    -287.632     -93.855
  O     -149.019    -288.952     -94.178
  H     -146.987    -287.451     -94.804
  H     -144.950    -290.937     -92.999
  H     -145.672    -289.907     -91.786
  H     -144.950    -289.203     -93.213

 6  7  8  9  10  11  12  13  14  15  25  28  32  33  34  35 0
 6-311+G(2d,p)
 ****
 36  39  40 0
 6-311+G(2d,p)
 ****
 1  2  3  4  5  16  17  18  19  20  21  22  23  24 0
 3-21G
 ****
 26  27  29  30  31  37  38  41  42  43  44  45  46  47  48 0
 3-21G
 ****


