%nproc=1
%NoSave
%Mem=1900MB
#P OB98/GEN NMR

erre ene a

0 1
  C      -99.406    -228.697    -269.201
  O     -100.657    -229.150    -269.709
  P     -101.237    -228.415    -271.014
  C     -102.799    -227.328    -269.248
  O     -102.085    -227.164    -270.467
  C     -102.622    -226.102    -268.354
  O     -101.229    -225.926    -268.020
  C     -103.061    -224.787    -268.986
  O     -104.462    -224.588    -268.894
  C     -102.323    -223.785    -268.117
  O     -103.029    -223.606    -266.876
  C     -100.986    -224.501    -267.865
  N      -97.249    -221.104    -268.661
  C      -98.175    -221.209    -267.688
  N      -99.147    -222.138    -267.548
  C      -99.133    -223.004    -268.582
  C      -98.267    -222.993    -269.665
  C      -97.277    -221.997    -269.682
  N      -96.310    -221.907    -270.664
  N      -98.554    -224.035    -270.521
  C      -99.565    -224.666    -269.958
  N      -99.943    -224.082    -268.780
  O     -102.364    -229.430    -271.531
  O     -100.227    -228.114    -272.070
  H     -103.139    -224.494    -266.478
  H     -102.532    -229.292    -272.484
  H      -98.129    -220.456    -266.908
  H     -100.051    -225.546    -270.368
  H     -100.619    -224.346    -266.845
  H     -102.234    -222.799    -268.585
  H     -102.702    -224.706    -270.024
  H     -103.173    -226.279    -267.420
  H     -102.418    -228.209    -268.721
  H      -95.536    -221.285    -270.511
  H      -96.219    -222.685    -271.310
  H     -103.863    -227.486    -269.476
  P     -105.284    -224.551    -270.277
  C     -105.237    -221.950    -270.372
  O     -104.856    -223.172    -270.978
  O     -106.786    -224.292    -269.801
  O     -105.146    -225.783    -271.105
  H     -107.416    -224.641    -270.460
  H     -104.619    -221.147    -270.788
  H     -105.081    -221.982    -269.289
  H     -106.286    -221.736    -270.590
  H      -99.143    -229.271    -268.337
  H      -99.483    -227.664    -268.933
  H      -98.652    -228.816    -269.951

 3  4  5  6  7  8  9  10  11  12  22  25  29  30  31  32 0
 6-311+G(2d,p)
 ****
 33  36  37 0
 6-311+G(2d,p)
 ****
 1  2  13  14  15  16  17  18  19  20  21  23  24  26 0
 3-21G
 ****
 27  28  34  35  38  39  40  41  42  43  44  45  46  47  48 0
 3-21G
 ****


