%nproc=1
%NoSave
%Mem=1900MB
#P OB98/GEN NMR

erre ene a

0 1
  C     -230.582     167.515     223.294
  O     -231.893     167.958     223.624
  P     -232.600     168.998     222.631
  C     -234.541     167.410     221.989
  O     -234.163     168.629     222.620
  C     -235.389     166.556     222.924
  O     -234.529     165.983     223.948
  C     -236.512     167.323     223.642
  O     -237.711     166.535     223.623
  C     -236.027     167.395     225.082
  O     -237.109     167.530     225.999
  C     -235.266     166.076     225.185
  N     -233.364     162.909     228.631
  C     -234.036     162.634     227.451
  N     -234.285     161.331     227.193
  N     -234.434     163.552     226.613
  C     -234.089     164.809     226.988
  C     -233.413     165.204     228.120
  C     -233.034     164.184     229.072
  O     -232.516     164.369     230.170
  N     -233.234     166.567     228.142
  C     -233.801     166.994     227.028
  N     -234.376     165.967     226.319
  O     -232.086     168.522     221.192
  O     -232.274     170.433     222.872
  H     -237.721     166.790     225.829
  H     -231.650     169.265     220.732
  H     -233.097     162.165     229.249
  H     -233.847     168.029     226.712
  H     -235.966     165.230     225.229
  H     -235.362     168.258     225.195
  H     -233.977     160.572     227.780
  H     -236.715     168.315     223.223
  H     -234.757     161.107     226.325
  H     -235.801     165.716     222.348
  H     -233.636     166.855     221.712
  H     -235.102     167.644     221.078
  P     -239.045     167.267     224.140
  C     -240.440     167.106     221.946
  O     -240.243     166.654     223.273
  O     -238.886     168.758     223.574
  O     -239.219     167.231     225.621
  H     -239.403     169.384     224.116
  H     -239.618     167.740     221.598
  H     -241.369     167.679     221.904
  H     -240.523     166.240     221.285
  H     -230.239     166.829     224.040
  H     -229.922     168.356     223.251
  H     -230.600     167.027     222.342

 3  4  5  6  7  8  9  10  11  12  23  26  30  31  33  0
 6-311+G(2d,p)
 ****
 35  36  37  38 0
 6-311+G(2d,p)
 ****
 1  2  13  14  15  16  17  18  19  20  21  22  24  25  27  28  29 0
 3-21G
 ****
 32  34  39  40  41  42  43  44  45  46  47  48  49 0
 3-21G
 ****


