%nproc=1
%NoSave
%Mem=1900MB
#P OB98/GEN NMR

erre ene a

0 1
  C     -184.105      71.750      -9.227
  O     -184.353      70.539      -9.951
  P     -183.284      69.350      -9.794
  C     -184.083      66.904      -9.292
  O     -184.069      68.008     -10.187
  C     -185.294      66.021      -9.573
  O     -186.525      66.767      -9.406
  C     -185.350      65.469     -10.993
  O     -184.409      64.419     -11.175
  C     -186.810      65.045     -11.085
  O     -187.003      63.770     -10.448
  C     -187.513      66.153     -10.265
  N     -188.185      67.139     -11.101
  C     -189.070      66.630     -12.046
  O     -189.272      65.426     -12.202
  N     -189.712      67.559     -12.828
  C     -189.528      68.912     -12.776
  O     -190.137      69.694     -13.494
  C     -188.543      69.383     -11.791
  C     -187.925      68.492     -11.010
  O     -183.139      69.276      -8.203
  O     -182.016      69.605     -10.538
  H     -183.969      69.463      -7.735
  H     -187.964      63.681     -10.299
  H     -190.369      67.211     -13.509
  H     -188.354      70.452     -11.741
  H     -187.190      68.823     -10.281
  H     -188.266      65.708      -9.598
  H     -187.155      64.953     -12.118
  H     -185.150      66.272     -11.713
  H     -185.293      65.194      -8.846
  H     -184.134      67.265      -8.260
  H     -183.151      66.346      -9.402
  P     -183.174      64.717     -12.160
  C     -181.915      63.268     -13.937
  O     -183.069      63.461     -13.148
  O     -181.934      64.537     -11.164
  O     -183.246      66.053     -12.821
  H     -182.014      63.753     -10.593
  H     -181.877      62.222     -14.256
  H     -181.006      63.495     -13.376
  H     -181.967      63.907     -14.823
  H     -184.890      72.450      -9.423
  H     -183.170      72.167      -9.539
  H     -184.069      71.538      -8.179

 3  4  5  6  7  8  9  10  11  12  13  24  28  29  30  31  32 0
 6-311+G(2d,p)
 ****
 33  34 0
 6-311+G(2d,p)
 ****
 1  2  14  15  16  17  18  19  20  21  22  23  25  26  27 0
 3-21G
 ****
 35  36  37  38  39  40  41  42  43  44  45 0
 3-21G
 ****


