%nproc=1
%NoSave
%Mem=1900MB
#P OB98/GEN NMR

erre ene a

0 1
  C      426.981     155.961     -67.648
  O      426.786     156.171     -69.028
  H      426.099     155.451     -67.247
  H      427.093     156.913     -67.123
  H      427.856     155.331     -67.475
  P      427.844     157.072     -69.835
  C      427.792     155.557     -71.905
  O      427.478     156.846     -71.390
  C      427.103     155.307     -73.248
  O      425.737     154.870     -73.020
  C      427.048     156.542     -74.155
  O      427.444     156.178     -75.481
  C      425.579     156.942     -74.133
  O      425.206     157.686     -75.290
  C      424.908     155.574     -73.966
  N      423.527     155.670     -73.501
  C      422.545     155.817     -74.488
  O      422.868     155.894     -75.675
  N      421.234     155.913     -74.108
  C      420.926     155.916     -72.848
  N      419.605     156.022     -72.535
  C      421.930     155.811     -71.772
  C      423.196     155.685     -72.163
  O      429.272     156.825     -69.484
  O      427.372     158.578     -69.572
  H      425.336     157.118     -76.081
  H      428.123     159.195     -69.755
  H      421.625     155.826     -70.734
  H      424.004     155.592     -71.444
  H      424.915     155.016     -74.910
  H      425.381     157.564     -73.251
  H      427.685     157.355     -73.817
  H      427.611     154.473     -73.745
  H      418.947     156.092     -73.304
  H      427.484     154.803     -71.173
  H      419.249     156.040     -71.589
  H      428.877     155.500     -72.046
  P      428.755     156.908     -76.051
  C      430.004     154.747     -76.752
  O      429.398     155.959     -77.179
  O      429.788     156.804     -74.829
  O      428.525     158.323     -76.465
  H      429.822     157.650     -74.347
  H      430.386     154.221     -77.602
  H      429.276     154.140     -76.255
  H      430.806     154.967     -76.078

 6  7  8  9  10  11  12  13  14  15  16  26  30  31  32  33  35 0
 6-311+G(2d,p)
 ****
 37  38 0
 6-311+G(2d,p)
 ****
 1  2  3  4  5  17  18  19  20  21  22  23  24  25 0
 3-21G
 ****
 27  28  29  34  36  39  40  41  42  43  44  45  46 0
 3-21G
 ****


