%nproc=1
%NoSave
%Mem=1900MB
#P OB98/GEN NMR

erre ene a

0 1
  C      147.971       5.718      31.498
  O      148.221       6.982      32.077
  H      147.185       5.218      32.070
  H      148.875       5.103      31.531
  H      147.637       5.832      30.463
  P      149.321       7.900      31.356
  C      151.352       6.628      32.364
  O      150.628       7.850      32.285
  C      152.660       6.851      33.118
  O      153.421       5.622      33.134
  C      153.577       7.892      32.485
  O      153.173       9.214      32.796
  C      154.921       7.509      33.092
  O      155.089       8.073      34.399
  C      154.820       5.981      33.190
  N      159.471       4.804      31.474
  C      159.053       5.419      32.602
  N      157.787       5.679      32.995
  C      156.909       5.221      32.086
  C      157.186       4.584      30.890
  C      158.542       4.372      30.590
  N      158.968       3.778      29.426
  N      156.019       4.308      30.205
  C      155.054       4.763      30.980
  N      155.546       5.317      32.127
  O      148.752       9.381      31.581
  O      149.552       7.603      29.912
  H      154.338       7.756      34.937
  H      148.234       9.654      30.802
  H      159.839       5.749      33.276
  H      153.996       4.721      30.750
  H      155.213       5.601      34.140
  H      155.749       7.864      32.477
  H      153.624       7.746      31.399
  H      152.424       7.119      34.155
  H      151.575       6.274      31.352
  H      150.734       5.882      32.875
  H      159.958       3.680      29.266
  H      158.288       3.549      28.713
  P      152.312      10.024      31.718
  C      154.530      11.148      30.962
  O      153.161      11.316      31.288
  O      151.112      10.629      32.586
  O      151.815       9.205      30.573
  H      150.306      10.093      32.474
  H      154.953      12.095      30.698
  H      154.620      10.475      30.135
  H      155.051      10.747      31.806

 6  7  8  9  10  11  12  13  14  15  25  28  32  33  34  35 0
 6-311+G(2d,p)
 ****
 36  37  40 0
 6-311+G(2d,p)
 ****
 1  2  3  4  5  16  17  18  19  20  21  22  23  24 0
 3-21G
 ****
 26  27  29  30  31  38  39 41  42  43  44  45  46  47  48 0
 3-21G
 ****


