%nproc=1
%NoSave
%Mem=1900MB
#P OB98/GEN NMR

erre ene a

0 1
  C      -39.360    -362.757      38.468
  O      -39.012    -362.310      37.165
  P      -38.288    -360.880      37.037
  C      -40.334    -360.007      35.693
  O      -39.471    -359.819      36.809
  C      -41.352    -358.876      35.607
  O      -42.292    -358.969      36.696
  C      -40.757    -357.480      35.697
  O      -40.236    -357.036      34.456
  C      -41.982    -356.668      36.080
  O      -42.787    -356.417      34.913
  C      -42.713    -357.619      37.032
  N      -44.769    -356.809      41.642
  C      -45.327    -356.963      40.424
  N      -44.710    -357.164      39.240
  C      -43.376    -357.162      39.394
  C      -42.664    -356.980      40.568
  C      -43.418    -356.808      41.741
  N      -42.847    -356.680      42.986
  N      -41.309    -357.040      40.327
  C      -41.201    -357.265      39.036
  N      -42.422    -357.356      38.429
  O      -37.584    -360.959      35.602
  O      -37.320    -360.563      38.124
  H      -42.343    -355.706      34.412
  H      -36.837    -360.332      35.562
  H      -46.412    -356.928      40.394
  H      -40.268    -357.376      38.503
  H      -43.801    -357.579      36.908
  H      -41.730    -355.692      36.509
  H      -40.010    -357.417      36.500
  H      -41.911    -358.995      34.669
  H      -40.864    -360.958      35.807
  H      -43.451    -356.749      43.790
  H      -41.858    -356.882      43.079
  H      -39.731    -360.050      34.781
  P      -39.411    -355.659      34.467
  C      -41.171    -354.623      32.861
  O      -40.474    -354.524      34.088
  O      -38.489    -355.779      33.164
  O      -38.615    -355.436      35.708
  H      -37.685    -355.233      33.264
  H      -42.048    -353.972      32.902
  H      -41.505    -355.648      32.677
  H      -40.526    -354.294      32.041
  H      -39.831    -363.716      38.402
  H      -40.035    -362.058      38.916
  H      -38.476    -362.834      39.067

 3  4  5  6  7  8  9  10  11  12  22  25  29  30  31  32 0
 6-311+G(2d,p)
 ****
 33  36  37 0
 6-311+G(2d,p)
 ****
 1  2  13  14  15  16  17  18  19  20  21  23  24  26 0
 3-21G
 ****
 27  28  34  35  38  39  40  41  42  43  44  45  46  47  48 0
 3-21G
 ****


