%nproc=1
%NoSave
%Mem=1900MB
#P OB98/GEN NMR

erre ene a

0 1
  C      374.078     481.117     762.298
  O      374.081     482.227     761.420
  H      374.025     480.204     761.700
  H      373.199     481.159     762.951
  H      374.988     481.095     762.895
  P      374.254     483.697     762.034
  C      376.104     484.998     763.262
  O      375.692     483.739     762.742
  C      377.547     484.931     763.754
  O      377.594     484.155     764.977
  C      378.510     484.288     762.752
  O      379.756     484.977     762.816
  C      378.680     482.877     763.287
  O      379.930     482.301     762.900
  C      378.551     483.090     764.795
  N      380.038     478.542     766.411
  C      380.762     479.566     765.836
  N      382.081     479.338     765.628
  N      380.248     480.713     765.478
  C      378.920     480.808     765.756
  C      378.093     479.868     766.323
  C      378.674     478.595     766.697
  O      378.083     477.652     767.201
  N      376.804     480.336     766.413
  C      376.851     481.551     765.898
  N      378.113     481.879     765.473
  O      373.125     484.169     762.896
  O      374.445     484.634     760.752
  H      380.002     481.434     763.356
  H      373.613     485.092     760.529
  H      380.482     477.678     766.656
  H      376.013     482.222     765.801
  H      379.497     483.392     765.254
  H      377.871     482.235     762.906
  H      382.556     478.486     765.888
  H      378.127     484.298     761.725
  H      382.639     480.080     765.229
  H      377.875     485.948     764.012
  H      375.440     485.254     764.093
  H      376.006     485.758     762.482
  P      379.883     486.414     762.102
  C      380.066     488.886     762.812
  O      379.907     487.538     763.253
  O      378.934     486.663     760.980
  O      381.406     486.417     761.583
  H      381.459     486.975     760.780
  H      380.067     489.540     763.659
  H      379.257     489.146     762.161
  H      380.992     488.982     762.285

 6  7  8  9  10  11  12  13  14  15  26  29  33  34 0
 6-311+G(2d,p)
 ****
 36  38  39  40  41 0
 6-311+G(2d,p)
 ****
 1  2  3  4  5  16  17  18  19  20  21  22  23  24  25 0
 3-21G
 ****
 27  28  30  31  32  35  37  42  43  44  45  46  47 0
 3-21G
 ****
 48  49 0
 3-21G
 ****


