%nproc=1
%NoSave
%Mem=1900MB
#P OB98/GEN NMR

erre ene a

0 1
  C     -572.156    -706.003    -504.500
  O     -572.164    -704.594    -504.585
  H     -572.646    -706.408    -505.385
  H     -572.708    -706.329    -503.618
  H     -571.134    -706.382    -504.461
  P     -571.499    -703.751    -503.393
  C     -570.163    -701.945    -504.685
  O     -570.127    -703.196    -504.016
  C     -569.000    -701.823    -505.653
  O     -569.077    -702.820    -506.695
  C     -568.916    -700.499    -506.406
  O     -568.478    -699.409    -505.602
  C     -567.916    -700.865    -507.481
  O     -566.594    -700.904    -506.921
  C     -568.402    -702.285    -507.868
  N     -569.309    -702.269    -509.019
  C     -570.208    -703.340    -509.114
  O     -570.197    -704.245    -508.287
  N     -571.071    -703.382    -510.188
  C     -571.023    -702.445    -511.101
  N     -571.898    -702.532    -512.132
  C     -570.084    -701.305    -511.031
  C     -569.269    -701.283    -509.979
  O     -571.367    -704.457    -502.080
  O     -572.383    -702.415    -503.306
  H     -566.352    -699.989    -506.690
  H     -572.016    -701.856    -502.572
  H     -570.069    -700.568    -511.823
  H     -568.548    -700.477    -509.868
  H     -567.555    -702.943    -508.088
  H     -567.893    -700.158    -508.313
  H     -569.878    -700.263    -506.884
  H     -568.080    -702.016    -505.082
  H     -572.529    -703.338    -512.148
  H     -570.128    -701.151    -503.925
  H     -571.882    -701.901    -512.925
  H     -571.100    -701.845    -505.242
  P     -569.392    -698.085    -505.605
  C     -568.748    -697.445    -503.159
  O     -569.769    -697.801    -504.070
  O     -570.764    -698.581    -506.250
  O     -568.802    -696.907    -506.316
  H     -570.787    -698.345    -507.212
  H     -569.173    -697.294    -502.189
  H     -568.276    -696.542    -503.487
  H     -568.022    -698.230    -503.112

 6  7  8  9  10  11  12  13  14  15  16  26  30  31  32  33  35 0
 6-311+G(2d,p)
 ****
 37  38 0
 6-311+G(2d,p)
 ****
 1  2  3  4  5  17  18  19  20  21  22  23  24  25 0
 3-21G
 ****
 27  28  29  34  36  39  40  41  42  43  44  45  46 0
 3-21G
 ****


