%nproc=1
%NoSave
%Mem=1900MB
#P OB98/GEN NMR

erre ene a

0 1
  C      -37.953     524.662     617.781
  O      -38.648     523.482     617.443
  H      -38.417     525.107     618.669
  H      -37.996     525.389     616.967
  H      -36.906     524.431     618.019
  P      -38.255     522.717     616.089
  C      -39.736     523.767     614.252
  O      -38.465     523.772     614.897
  C      -39.940     525.034     613.431
  O      -38.951     525.057     612.362
  C      -41.338     525.139     612.799
  O      -41.752     526.514     612.829
  C      -41.083     524.691     611.370
  O      -42.072     525.208     610.489
  C      -39.656     525.201     611.114
  N      -39.022     524.444     610.031
  C      -39.588     524.573     608.756
  O      -40.573     525.308     608.579
  N      -39.081     523.833     607.722
  C      -38.134     522.984     607.953
  N      -37.689     522.244     606.887
  C      -37.514     522.785     609.285
  C      -38.004     523.545     610.271
  O      -38.911     521.390     615.874
  O      -36.661     522.575     616.181
  H      -41.884     524.890     609.588
  H      -36.429     521.731     616.615
  H      -36.726     522.062     609.420
  H      -37.625     523.466     611.280
  H      -39.663     526.267     610.849
  H      -41.110     523.593     611.322
  H      -42.084     524.518     613.298
  H      -39.737     525.908     614.074
  H      -38.166     522.388     606.004
  H      -40.507     523.705     615.043
  H      -36.999     521.519     606.959
  H      -39.823     522.878     613.613
  P      -42.757     527.041     613.967
  C      -44.843     526.108     612.822
  O      -44.050     526.088     614.009
  O      -43.057     528.500     613.897
  O      -41.997     526.678     615.339
  H      -42.243     527.337     616.024
  H      -45.677     525.448     612.939
  H      -44.249     525.788     611.991
  H      -45.197     527.102     612.646

 6  7  8  9  10  11  12  13  14  15  16  26  30  31  32  33  35 0
 6-311+G(2d,p)
 ****
 37  38 0
 6-311+G(2d,p)
 ****
 1  2  3  4  5  17  18  19  20  21  22  23  24  25 0
 3-21G
 ****
 27  28  29  34  36  39  40  41  42  43  44  45  46 0
 3-21G
 ****


