%nproc=1
%NoSave
%Mem=1900MB
#P OB98/GEN NMR

erre ene a

0 1
  C     -478.069    -496.807     315.123
  O     -478.179    -495.505     315.661
  H     -478.728    -496.883     314.253
  H     -478.376    -497.555     315.857
  H     -477.042    -497.004     314.800
  P     -477.305    -495.145     316.956
  C     -479.256    -493.580     317.595
  O     -477.848    -493.727     317.470
  C     -479.579    -492.440     318.554
  O     -479.190    -492.784     319.898
  C     -478.866    -491.128     318.220
  O     -479.551    -490.439     317.182
  C     -478.948    -490.420     319.562
  O     -480.277    -489.899     319.759
  C     -478.682    -491.579     320.536
  N     -475.057    -490.833     324.003
  C     -476.378    -490.416     323.992
  N     -476.769    -489.655     325.039
  N     -477.223    -490.703     323.039
  C     -476.668    -491.409     322.027
  C     -475.372    -491.864     321.918
  C     -474.461    -491.587     323.007
  O     -473.289    -491.958     323.062
  N     -475.163    -492.491     320.712
  C     -476.337    -492.448     320.117
  N     -477.280    -491.788     320.867
  O     -475.815    -495.198     316.785
  O     -477.821    -496.168     318.069
  H     -480.333    -489.628     320.693
  H     -477.277    -496.975     318.085
  H     -474.452    -490.562     324.762
  H     -476.557    -492.879     319.150
  H     -479.221    -491.460     321.485
  H     -478.252    -489.588     319.650
  H     -476.103    -489.179     325.633
  H     -477.812    -491.289     317.976
  H     -477.715    -489.299     325.027
  H     -480.669    -492.301     318.559
  H     -479.654    -494.526     317.976
  H     -479.704    -493.378     316.618
  P     -478.973    -490.412     315.686
  C     -480.417    -488.306     315.301
  O     -480.062    -489.599     314.840
  O     -478.617    -491.747     315.130
  O     -477.749    -489.387     315.748
  H     -476.889    -489.815     315.990
  H     -481.148    -487.882     314.645
  H     -479.548    -487.682     315.317
  H     -480.822    -488.378     316.289

 6  7  8  9  10  11  12  13  14  15  26  29  33  34 0
 6-311+G(2d,p)
 ****
 36  38  39  40  41 0
 6-311+G(2d,p)
 ****
 1  2  3  4  5  16  17  18  19  20  21  22  23  24  25 0
 3-21G
 ****
 27  28  30  31  32  35  37  42  43  44  45  46  47 0
 3-21G
 ****
 48  49 0
 3-21G
 ****


