%nproc=1
%NoSave
%Mem=1900MB
#P OB98/GEN NMR

erre ene a

0 1
  C      159.274      62.147    -171.518
  O      158.650      61.098    -170.799
  H      159.077      62.022    -172.587
  H      158.845      63.098    -171.193
  H      160.351      62.161    -171.333
  P      159.322      59.642    -170.892
  C      157.148      58.231    -170.734
  O      158.348      58.641    -170.094
  C      156.163      57.666    -169.707
  O      155.760      58.743    -168.808
  C      154.883      57.065    -170.322
  O      154.531      55.893    -169.572
  C      153.839      58.141    -170.079
  O      152.515      57.621    -170.029
  C      154.320      58.729    -168.752
  N      150.184      61.311    -167.298
  C      150.542      60.019    -167.141
  N      151.694      59.422    -167.512
  C      152.549      60.319    -168.042
  C      152.325      61.670    -168.264
  C      151.069      62.163    -167.880
  N      150.665      63.463    -168.101
  N      153.423      62.242    -168.883
  C      154.276      61.252    -169.056
  N      153.793      60.071    -168.567
  O      160.592      59.788    -169.922
  O      159.716      59.201    -172.263
  H      152.458      56.972    -169.302
  H      161.351      60.134    -170.428
  H      149.810      59.379    -166.661
  H      155.232      61.328    -169.551
  H      154.014      58.127    -167.888
  H      153.891      58.886    -170.883
  H      154.984      56.807    -171.382
  H      156.687      56.920    -169.097
  H      157.380      57.452    -171.468
  H      149.704      63.699    -167.887
  H      151.266      64.082    -168.629
  H      156.704      59.087    -171.257
  P      153.813      54.699    -170.366
  C      152.423      54.134    -168.229
  O      153.238      53.652    -169.296
  O      155.037      53.914    -171.035
  O      152.826      55.161    -171.391
  H      154.765      53.533    -171.890
  H      152.124      53.314    -167.610
  H      151.554      54.612    -168.632
  H      152.979      54.838    -167.645

 6  7  8  9  10  11  12  13  14  15  25  28  32  33  34  35 0
 6-311+G(2d,p)
 ****
 36  39  40 0
 6-311+G(2d,p)
 ****
 1  2  3  4  5  16  17  18  19  20  21  22  23  24 0
 3-21G
 ****
 26  27  29  30  31  37  38  41  42  43  44  45  46  47 0
 3-21G
 ****
 48 0
 3-21G
 ****


