%nproc=1
%NoSave
%Mem=1900MB
#P OB98/GEN NMR

erre ene a

0 1
  C       64.955    -214.702      91.573
  O       65.452    -215.228      90.361
  H       64.268    -213.880      91.346
  H       65.778    -214.312      92.179
  H       64.412    -215.471      92.128
  P       66.488    -216.451      90.473
  C       68.606    -214.962      90.676
  O       67.744    -215.898      91.312
  C       69.886    -214.776      91.489
  O       70.823    -213.965      90.721
  C       69.671    -214.077      92.841
  O       70.544    -214.670      93.810
  C       70.128    -212.657      92.567
  O       70.510    -211.973      93.760
  C       71.274    -212.912      91.588
  N       73.090    -208.229      92.014
  C       72.905    -209.211      92.975
  N       73.253    -208.902      94.240
  N       72.418    -210.399      92.708
  C       72.134    -210.578      91.394
  C       72.265    -209.690      90.353
  C       72.787    -208.373      90.664
  O       72.952    -207.455      89.863
  N       71.838    -210.244      89.171
  C       71.456    -211.469      89.493
  N       71.624    -211.720      90.830
  O       67.070    -216.583      88.986
  O       65.916    -217.734      90.970
  H       70.757    -211.056      93.512
  H       67.316    -217.510      88.788
  H       73.458    -207.331      92.276
  H       71.050    -212.203      88.807
  H       72.191    -213.244      92.096
  H       69.324    -212.085      92.086
  H       73.668    -208.017      94.516
  H       68.640    -214.123      93.195
  H       73.134    -209.609      94.960
  H       70.360    -215.758      91.626
  H       68.082    -214.000      90.588
  H       68.850    -215.328      89.671
  P       69.911    -215.750      94.820
  C       70.770    -214.755      97.063
  O       69.645    -215.036      96.238
  O       71.147    -216.729      95.115
  O       68.752    -216.498      94.250
  H       71.004    -217.584      94.672
  H       70.441    -214.284      97.966
  H       71.439    -214.102      96.543
  H       71.275    -215.668      97.301

 6  7  8  9  10  11  12  13  14  15  26  29  33  34 0
 6-311+G(2d,p)
 ****
 36  38  39  40  41 0
 6-311+G(2d,p)
 ****
 1  2  3  4  5  16  17  18  19  20  21  22  23  24  25 0
 3-21G
 ****
 27  28  30  31  32  35  37  42  43  44  45  46  47 0
 3-21G
 ****
 48  49 0
 3-21G
 ****


