%nproc=1
%NoSave
%Mem=1900MB
#P OB98/GEN NMR

erre ene a

0 1
  C     -892.540     576.217    -902.599
  O     -893.950     576.231    -902.865
  P     -894.520     575.000    -903.738
  C     -895.790     573.414    -902.069
  O     -894.570     573.692    -902.781
  C     -895.650     573.879    -900.635
  O     -895.480     575.333    -900.523
  C     -896.900     573.573    -899.784
  O     -896.920     572.191    -899.442
  C     -896.640     574.502    -898.585
  O     -895.690     573.923    -897.677
  C     -896.070     575.739    -899.279
  N     -896.770     580.808    -899.628
  C     -895.680     580.058    -899.408
  N     -895.570     578.734    -899.321
  C     -896.760     578.134    -899.525
  C     -897.990     578.757    -899.750
  C     -897.970     580.175    -899.806
  N     -899.090     580.911    -900.003
  N     -899.000     577.835    -899.898
  C     -898.380     576.650    -899.707
  N     -897.040     576.813    -899.500
  O     -893.320     574.675    -904.756
  O     -895.790     575.330    -904.452
  H     -896.140     573.167    -897.248
  H     -893.580     574.963    -905.666
  H     -894.750     580.628    -899.291
  H     -898.900     575.710    -899.752
  H     -895.250     576.200    -898.684
  H     -897.580     574.707    -898.024
  H     -897.800     573.848    -900.313
  H     -894.750     573.413    -900.186
  H     -896.010     572.351    -902.105
  H     -899.010     581.924    -899.946
  H     -900.000     580.477    -900.058
  H     -896.600     573.945    -902.576
  P     -897.880     571.235    -900.298
  C     -896.020     569.510    -900.751
  O     -896.880     570.468    -901.335
  O     -898.630     572.314    -901.262
  O     -898.780     570.363    -899.514
  H     -897.980     572.939    -901.669
  H     -895.420     569.078    -901.568
  H     -896.630     568.725    -900.265
  H     -895.370     569.995    -900.029
  H     -892.278     577.076    -902.017
  H     -892.002     576.236    -903.524
  H     -892.288     575.329    -902.058

 3  4  5  6  7  8  9  10  11  12  22  25  29  30  31  32 0
 6-311+G(2d,p)
 ****
 33  36  37 0
 6-311+G(2d,p)
 ****
 1  2  13  14  15  16  17  18  19  20  21  23  24  26 0
 3-21G
 ****
 27  28  34  35  38  39  40  41  42  43  44  45  46  47  48 0
 3-21G
 ****


