%nproc=1
%NoSave
%Mem=1900MB
#P OB98/GEN NMR

erre ene a

0 1
  C       24.886    -100.392      36.518
  O       26.172    -101.035      36.551
  P       27.330    -100.516      35.566
  C       28.345    -102.886      35.163
  O       28.563    -101.542      35.561
  C       29.536    -103.780      35.541
  O       30.678    -103.481      34.687
  C       30.009    -103.626      36.993
  O       30.495    -104.908      37.416
  C       31.164    -102.650      36.858
  O       32.052    -102.675      37.967
  C       31.784    -103.142      35.547
  N       32.668    -102.172      34.900
  C       33.509    -102.628      33.891
  O       33.605    -103.804      33.545
  N       34.286    -101.674      33.286
  C       34.335    -100.349      33.611
  O       35.077     -99.551      33.051
  C       33.448     -99.930      34.703
  C       32.670    -100.844      35.286
  O       27.929     -99.273      36.383
  O       26.871    -100.070      34.216
  H       32.422    -103.574      38.021
  H       28.044     -98.511      35.785
  H       34.892    -101.984      32.543
  H       33.453     -98.887      34.989
  H       31.997    -100.554      36.086
  H       32.337    -104.069      35.730
  H       30.770    -101.632      36.770
  H       29.222    -103.277      37.667
  H       29.256    -104.821      35.339
  H       28.204    -102.922      34.079
  H       27.431    -103.255      35.641
  P       29.684    -105.692      38.562
  C       31.593    -106.071      40.310
  O       30.736    -106.620      39.334
  O       28.861    -106.737      37.665
  O       28.811    -104.824      39.406
  H       29.409    -107.161      36.985
  H       31.071    -105.346      40.939
  H       32.441    -105.585      39.822
  H       31.967    -106.879      40.944
  H       24.237    -100.856      37.231
  H       24.466    -100.485      35.538
  H       24.999     -99.356      36.760

 3  4  5  6  7  8  9  10  11  12  13  23  28  29  30  31  32 0
 6-311+G(2d,p)
 ****
 33  34 0
 6-311+G(2d,p)
 ****
 1  2  14  15  16  17  18  19  20  21  22  24  25  26 0
 3-21G
 ****
 27  35  36  37  38  39  40  41  42  43  44  45 0
 3-21G
 ****


