%nproc=1
%NoSave
%Mem=1900MB
#P OB98/GEN NMR

erre ene a

0 1
  C        2.768     314.699    -235.261
  O        2.820     315.257    -233.936
  P        4.178     315.029    -233.106
  C        4.428     317.553    -232.573
  O        4.334     316.234    -232.052
  C        3.566     318.530    -231.755
  O        2.151     318.346    -232.059
  C        3.731     318.390    -230.241
  O        3.584     319.691    -229.662
  C        2.532     317.545    -229.855
  O        2.232     317.658    -228.471
  C        1.474     318.109    -230.807
  N       -3.568     317.559    -230.191
  C       -2.728     318.581    -229.911
  N       -1.387     318.649    -230.087
  C       -0.935     317.504    -230.646
  C       -1.671     316.379    -230.977
  C       -3.055     316.421    -230.718
  N       -3.900     315.376    -230.970
  N       -0.842     315.384    -231.482
  C        0.371     315.920    -231.455
  N        0.356     317.206    -230.990
  O        5.320     315.313    -234.185
  O        4.302     313.655    -232.529
  H        1.541     317.006    -228.235
  H        5.757     314.481    -234.450
  H       -3.201     319.475    -229.484
  H        1.273     315.413    -231.761
  H        1.057     319.065    -230.448
  H        2.731     316.483    -230.076
  H        4.677     317.937    -229.931
  H        3.843     319.559    -232.068
  H        4.097     317.566    -233.622
  H       -4.883     315.481    -230.730
  H       -3.519     314.508    -231.325
  H        5.479     317.863    -232.586
  P        4.897     320.621    -229.662
  C        3.595     322.784    -230.253
  O        4.393     322.104    -229.308
  O        5.303     320.710    -231.209
  O        6.016     320.090    -228.812
  H        6.260     320.880    -231.295
  H        2.808     323.321    -229.719
  H        3.130     322.103    -230.981
  H        4.220     323.505    -230.795
  H        1.819     314.919    -235.704
  H        2.899     313.638    -235.207
  H        3.547     315.125    -235.858

 3  4  5  6  7  8  9  10  11  12  22  25  29  30  31  32 0
 6-311+G(2d,p)
 ****
 33  36  37 0
 6-311+G(2d,p)
 ****
 1  2  13  14  15  16  17  18  19  20  21  23  24  26 0
 3-21G
 ****
 27  28  34  35  38  39  40  41  42  43  44  45  46  47  48 0
 3-21G
 ****


