%nproc=1
%NoSave
%Mem=1900MB
#P OB98/GEN NMR

erre ene a

0 1
  C     -183.674     120.322     197.700
  O     -184.748     120.516     198.622
  P     -185.978     119.489     198.611
  C     -186.119     119.687     201.175
  O     -186.838     119.700     199.951
  C     -185.790     121.117     201.631
  O     -186.998     121.930     201.682
  C     -185.161     121.158     203.029
  O     -184.219     122.238     203.126
  C     -186.342     121.491     203.918
  O     -185.924     122.037     205.167
  C     -187.113     122.453     203.020
  N     -190.766     125.715     204.516
  C     -189.486     125.913     204.137
  N     -188.579     125.000     203.731
  C     -189.117     123.770     203.722
  C     -190.410     123.414     204.073
  C     -191.257     124.453     204.493
  N     -192.552     124.245     204.909
  N     -190.598     122.052     203.941
  C     -189.424     121.591     203.567
  N     -188.506     122.590     203.389
  O     -185.634     118.070     198.301
  O     -186.941     120.104     197.486
  H     -185.538     121.310     205.691
  H     -187.302     119.375     196.939
  H     -189.142     126.943     204.171
  H     -189.180     120.547     203.427
  H     -186.669     123.456     203.023
  H     -186.923     120.583     204.122
  H     -184.665     120.231     203.332
  H     -185.124     121.577     200.894
  H     -185.199     119.113     201.057
  H     -193.044     125.033     205.303
  H     -192.879     123.298     205.037
  H     -186.711     119.156     201.930
  P     -182.668     121.839     202.949
  C     -181.791     123.899     201.598
  O     -181.874     123.225     202.834
  O     -182.428     120.848     201.860
  O     -182.301     121.293     204.407
  H     -182.554     121.881     205.138
  H     -181.327     124.875     201.757
  H     -182.789     124.056     201.173
  H     -181.177     123.328     200.897
  H     -182.941     121.089     197.839
  H     -184.051     120.366     196.699
  H     -183.226     119.366     197.871

 3  4  5  6  7  8  9  10  11  12  22  25  29  30  31  32 0
 6-311+G(2d,p)
 ****
 33  36  37 0
 6-311+G(2d,p)
 ****
 1  2  13  14  15  16  17  18  19  20  21  23  24  26 0
 3-21G
 ****
 27  28  34  35  38  39  40  41  42  43  44  45  46  47  48 0
 3-21G
 ****


