%nproc=1
%NoSave
%Mem=1900MB
#P OB98/GEN NMR

erre ene a

0 1
  C      101.249     346.847    -360.294
  O      100.113     346.732    -359.435
  P       98.852     347.689    -359.694
  C      100.054     349.562    -358.394
  O       99.341     349.214    -359.575
  C      100.717     350.937    -358.546
  O      101.696     350.944    -359.597
  C       99.732     352.034    -358.905
  O       98.940     352.403    -357.783
  C      100.673     353.118    -359.417
  O      101.230     353.871    -358.329
  C      101.778     352.289    -360.116
  N      101.677     352.300    -361.566
  C      101.492     353.559    -362.159
  O      101.401     354.570    -361.459
  N      101.421     353.635    -363.528
  C      101.504     352.553    -364.246
  N      101.431     352.689    -365.599
  C      101.679     351.205    -363.659
  C      101.743     351.155    -362.333
  O       97.619     347.353    -358.917
  O       98.600     347.520    -361.276
  H      101.908     354.453    -358.724
  H       97.647     347.642    -361.456
  H      101.745     350.336    -364.302
  H      101.867     350.203    -361.815
  H      102.767     352.671    -359.840
  H      100.155     353.834    -360.071
  H       99.081     351.700    -359.720
  H      101.212     351.181    -357.592
  H      101.297     353.620    -365.978
  H      100.816     348.804    -358.189
  H      101.530     351.914    -366.243
  H       99.358     349.547    -357.545
  P       97.492     351.730    -357.650
  C       96.051     353.869    -357.965
  O       96.458     352.617    -358.491
  O       97.093     352.048    -356.123
  O       97.449     350.260    -357.924
  H       96.562     351.312    -355.764
  H       95.614     354.470    -358.759
  H       96.884     354.415    -357.525
  H       95.278     353.703    -357.197
  H      101.998     346.145    -359.991
  H      101.644     347.839    -360.232
  H      100.956     346.642    -361.302

 3  4  5  6  7  8  9  10  11  12  13  23  27  28  29  30  32 0
 6-311+G(2d,p)
 ****
 34  35 0
 6-311+G(2d,p)
 ****
 1  2  14  15  16  17  18  19  20  21  22  24  25  26 0
 3-21G
 ****
 31  33  36  37  38  39  40  41  42  43  44  45  46 0
 3-21G
 ****


