%nproc=1
%NoSave
%Mem=1900MB
#P OB98/GEN NMR

erre ene a

0 1
  C     -284.703    -896.880     816.179
  O     -285.061    -897.320     814.884
  H     -283.643    -896.600     816.168
  H     -284.839    -897.680     816.907
  H     -285.293    -896.000     816.465
  P     -286.550    -897.860     814.647
  C     -286.559    -897.140     812.165
  O     -287.169    -896.990     813.442
  C     -287.137    -896.120     811.182
  O     -288.554    -896.400     811.038
  C     -286.977    -894.670     811.679
  O     -286.357    -893.820     810.724
  C     -288.386    -894.300     812.142
  O     -288.672    -892.920     812.099
  C     -289.284    -895.170     811.247
  N     -290.602    -895.450     811.825
  C     -291.691    -894.830     811.232
  O     -291.648    -894.100     810.240
  N     -292.913    -895.100     811.810
  C     -293.122    -895.900     812.896
  O     -294.236    -896.100     813.367
  C     -291.920    -896.500     813.494
  C     -290.734    -896.240     812.940
  O     -287.411    -897.940     815.863
  O     -286.333    -899.300     813.972
  H     -287.967    -892.450     812.607
  H     -286.481    -900.000     814.641
  H     -293.717    -894.670     811.381
  H     -292.049    -897.120     814.360
  H     -289.821    -896.670     813.365
  H     -289.435    -894.690     810.285
  H     -288.495    -894.620     813.186
  H     -286.298    -894.620     812.536
  H     -286.667    -896.260     810.202
  H     -286.763    -898.160     811.811
  H     -285.482    -897.000     812.263
  P     -284.944    -894.100     810.039
  C     -285.867    -893.610     807.631
  O     -285.193    -894.500     808.511
  O     -284.005    -894.960     810.820
  O     -284.284    -892.620     809.932
  H     -283.309    -892.750     810.035
  H     -285.936    -894.053     806.659
  H     -285.322    -892.692     807.566
  H     -286.851    -893.415     808.005

 6  7  8  9  10  11  12  13  14  15  16  26  31  32  33  34  35 0
 6-311+G(2d,p)
 ****
 36  37 0
 6-311+G(2d,p)
 ****
 1  2  3  4  5  17  18  19  20  21  22  23  24  25 0
 3-21G
 ****
 27  28  29  30  38  39  40  41  42  43  44  45 0
 3-21G
 ****


