%nproc=1
%NoSave
%Mem=1900MB
#P OB98/GEN NMR

erre ene a

0 1
  C      272.971     -23.076    -117.958
  O      271.920     -22.208    -117.595
  H      272.652     -24.105    -117.778
  H      273.852     -22.869    -117.343
  H      273.227     -22.969    -119.014
  P      271.991     -20.676    -118.051
  C      270.050     -21.028    -119.715
  O      271.391     -20.598    -119.537
  C      269.785     -21.387    -121.183
  O      270.775     -22.355    -121.616
  C      268.412     -22.043    -121.361
  O      267.873     -21.816    -122.660
  C      268.726     -23.523    -121.208
  O      267.754     -24.369    -121.822
  C      270.110     -23.607    -121.849
  N      271.019     -28.621    -121.885
  C      269.955     -27.924    -122.419
  N      269.009     -28.661    -123.049
  N      269.817     -26.627    -122.325
  C      270.798     -26.030    -121.608
  C      271.891     -26.617    -121.011
  C      272.051     -28.048    -121.152
  O      272.962     -28.718    -120.679
  N      272.665     -25.688    -120.361
  C      272.041     -24.544    -120.560
  N      270.916     -24.696    -121.333
  O      273.555     -20.429    -118.298
  O      271.424     -19.686    -117.081
  H      266.898     -24.190    -121.390
  H      273.761     -19.478    -118.238
  H      271.092     -29.615    -122.011
  H      272.368     -23.583    -120.184
  H      270.025     -23.745    -122.934
  H      268.735     -23.763    -120.142
  H      268.980     -29.665    -122.970
  H      267.691     -21.718    -120.616
  H      268.094     -28.219    -123.164
  H      269.910     -20.501    -121.815
  H      269.406     -20.204    -119.399
  H      269.834     -21.877    -119.065
  P      266.991     -20.502    -122.904
  C      268.458     -19.509    -124.869
  O      267.884     -19.370    -123.589
  O      266.728     -19.942    -121.431
  O      265.715     -20.745    -123.647
  H      265.778     -19.979    -121.218
  H      269.009     -18.624    -125.111
  H      267.684     -19.656    -125.593
  H      269.117     -20.352    -124.875

 6  7  8  9  10  11  12  13  14  15  26  29  33  34 0
 6-311+G(2d,p)
 ****
 36  38  39  40  41 0
 6-311+G(2d,p)
 ****
 1  2  3  4  5  16  17  18  19  20  21  22  23  24  25 0
 3-21G
 ****
 27  28  30  31  32  35  37  42  43  44  45  46  47 0
 3-21G
 ****
 48  49 0
 3-21G
 ****


