%nproc=1
%NoSave
%Mem=1900MB
#P OB98/GEN NMR

erre ene a

0 1
  C     -114.740     123.958     131.190
  O     -114.029     123.716     129.995
  H     -114.618     125.011     131.460
  H     -114.341     123.343     132.000
  H     -115.806     123.753     131.058
  P     -114.149     122.275     129.301
  C     -111.751     121.375     129.580
  O     -113.096     121.316     130.038
  C     -110.972     120.170     130.102
  O     -109.571     120.300     129.777
  C     -111.033     120.003     131.616
  O     -112.285     119.480     132.014
  C     -109.844     119.083     131.843
  O     -110.176     117.722     131.528
  C     -108.821     119.641     130.823
  N     -107.850     120.553     131.434
  C     -106.860     119.962     132.211
  O     -106.782     118.751     132.397
  N     -105.980     120.826     132.812
  C     -106.055     122.188     132.781
  O     -105.385     122.918     133.507
  C     -107.074     122.753     131.885
  C     -107.923     121.924     131.274
  O     -114.080     122.264     127.812
  O     -115.560     121.723     129.826
  H     -116.231     121.839     129.126
  H     -110.294     117.683     130.560
  H     -105.287     120.411     133.417
  H     -107.125     123.830     131.782
  H     -108.702     122.319     130.631
  H     -108.267     118.821     130.349
  H     -109.498     119.097     132.878
  H     -110.837     120.962     132.109
  H     -111.353     119.272     129.595
  H     -111.294     122.296     129.960
  H     -111.745     121.399     128.486
  P     -113.095     120.116     133.239
  C     -112.147     118.255     134.725
  O     -112.386     119.650     134.598
  O     -114.572     119.894     133.204
  O     -112.751     121.679     133.171
  H     -113.584     122.188     133.160
  H     -111.673     118.058     135.664
  H     -111.511     117.928     133.929
  H     -113.077     117.728     134.678

 6  7  8  9  10  11  12  13  14  15  16  27  31  32  33  34  35 0
 6-311+G(2d,p)
 ****
 36  37 0
 6-311+G(2d,p)
 ****
 1  2  3  4  5  17  18  19  20  21  22  23  24  25 0
 3-21G
 ****
 26  28  29  30  38  39  40  41  42  43  44  45 0
 3-21G
 ****


