%nproc=1
%NoSave
%Mem=1900MB
#P OB98/GEN NMR

erre ene a

0 1
  C       19.780     -90.503    -230.416
  O       20.096     -91.873    -230.227
  P       20.476     -92.455    -228.779
  C       22.940     -92.871    -229.445
  O       22.044     -92.168    -228.601
  C       24.120     -93.410    -228.633
  O       24.860     -92.285    -228.087
  C       23.721     -94.312    -227.458
  O       24.733     -95.317    -227.329
  C       23.755     -93.363    -226.275
  O       23.904     -94.038    -225.034
  C       24.937     -92.465    -226.660
  N       24.916     -91.184    -225.966
  C       25.640     -91.073    -224.777
  O       26.254     -92.036    -224.320
  N       25.652     -89.864    -224.125
  C       24.938     -88.878    -224.573
  N       25.035     -87.685    -223.924
  C       24.074     -88.985    -225.761
  C       24.131     -90.143    -226.415
  O       20.074     -93.871    -228.550
  O       19.831     -91.417    -227.751
  H       23.093     -94.555    -224.868
  H       18.880     -91.607    -227.556
  H       23.473     -88.143    -226.082
  H       23.548     -90.304    -227.313
  H       25.884     -92.978    -226.458
  H       22.823     -92.792    -226.237
  H       22.751     -94.795    -227.605
  H       24.793     -93.946    -229.315
  H       25.763     -87.605    -223.222
  H       23.321     -92.178    -230.201
  H       24.779     -86.821    -224.386
  H       22.409     -93.683    -229.956
  P       24.298     -96.778    -226.823
  C       24.962     -96.375    -224.347
  O       23.933     -96.677    -225.268
  O       25.711     -97.544    -226.786
  O       23.340     -97.524    -227.694
  H       25.556     -98.501    -226.890
  H       24.534     -96.340    -223.340
  H       25.404     -95.400    -224.569
  H       25.735     -97.148    -224.370
  H       19.558     -90.327    -231.448
  H       20.614     -89.901    -230.123
  H       18.929     -90.248    -229.820

 3  4  5  6  7  8  9  10  11  12  13  23  27  28  29  30  32 0
 6-311+G(2d,p)
 ****
 34  35 0
 6-311+G(2d,p)
 ****
 1  2  14  15  16  17  18  19  20  21  22  24  25  26 0
 3-21G
 ****
 31  33  36  37  38  39  40  41  42  43  44  45  46 0
 3-21G
 ****


