%nproc=1
%NoSave
%Mem=1900MB
#P OB98/GEN NMR

erre ene a

0 1
  C     -113.859    -743.154     961.397
  O     -112.558    -743.340     960.883
  H     -114.036    -743.894     962.184
  H     -114.594    -743.306     960.599
  H     -113.977    -742.147     961.816
  P     -111.929    -742.146     960.015
  C     -111.328    -740.753     962.127
  O     -112.058    -740.815     960.907
  C     -110.759    -739.348     962.348
  O     -111.876    -738.455     962.656
  C     -109.763    -739.250     963.513
  O     -108.733    -738.310     963.158
  C     -110.584    -738.657     964.630
  O     -109.789    -738.000     965.608
  C     -111.510    -737.723     963.851
  N     -113.060    -734.451     967.313
  C     -111.892    -734.472     966.567
  N     -110.972    -733.542     966.828
  N     -111.654    -735.384     965.651
  C     -112.666    -736.260     965.479
  C     -113.870    -736.331     966.142
  C     -114.118    -735.350     967.179
  O     -115.119    -735.268     967.877
  N     -114.609    -737.410     965.716
  C     -113.853    -737.999     964.805
  N     -112.663    -737.330     964.623
  O     -113.035    -741.938     958.869
  O     -110.576    -742.406     959.450
  H     -110.371    -737.421     966.143
  H     -112.774    -742.450     958.069
  H     -113.194    -733.743     968.019
  H     -114.104    -738.899     964.279
  H     -111.004    -736.802     963.533
  H     -111.162    -739.446     965.128
  H     -111.088    -732.792     967.502
  H     -109.289    -740.216     963.780
  H     -110.130    -733.526     966.267
  H     -110.321    -738.989     961.411
  H     -110.488    -741.463     962.073
  H     -111.983    -741.047     962.952
  P     -107.195    -738.725     963.382
  C     -106.594    -739.056     960.859
  O     -106.736    -739.654     962.144
  O     -107.279    -739.747     964.600
  O     -106.305    -737.568     963.683
  H     -106.488    -739.667     965.154
  H     -106.287    -739.798     960.152
  H     -105.858    -738.281     960.906
  H     -107.531    -738.639     960.554

 6  7  8  9  10  11  12  13  14  15  26  29  33  34 0
 6-311+G(2d,p)
 ****
 36  38  39  40  41 0
 6-311+G(2d,p)
 ****
 1  2  3  4  5  16  17  18  19  20  21  22  23  24  25 0
 3-21G
 ****
 27  28  30  31  32  35  37  42  43  44  45  46  47 0
 3-21G
 ****
 48  49 0
 3-21G
 ****


