%nproc=1
%NoSave
%Mem=1900MB
#P OB98/GEN NMR

erre ene a

0 1
  C      177.836      37.437      36.811
  O      177.229      37.461      35.533
  H      177.205      37.995      37.508
  H      178.825      37.902      36.783
  H      177.921      36.406      37.165
  P      178.090      36.952      34.277
  C      179.077      39.320      34.002
  O      179.360      37.937      34.205
  C      180.331      40.173      34.188
  O      180.790      40.117      35.555
  C      181.522      39.719      33.358
  O      181.364      39.871      31.967
  C      182.676      40.421      34.058
  O      182.824      41.777      33.637
  C      182.213      40.373      35.535
  N      182.949      39.385      36.315
  C      184.332      39.520      36.320
  O      184.934      40.395      35.696
  N      185.020      38.586      37.046
  C      184.473      37.529      37.713
  O      185.148      36.712      38.330
  C      183.008      37.414      37.638
  C      182.322      38.335      36.955
  O      177.340      36.832      32.983
  O      178.728      35.576      34.782
  H      182.918      41.764      32.665
  H      179.078      35.045      34.025
  H      186.024      38.675      37.076
  H      182.540      36.581      38.145
  H      181.238      38.273      36.888
  H      182.357      41.354      36.009
  H      183.630      39.920      33.881
  H      181.666      38.644      33.527
  H      180.067      41.214      33.969
  H      178.325      39.618      34.741
  H      178.666      39.465      32.999
  P      181.829      38.782      30.899
  C      184.160      39.934      30.625
  O      183.431      38.738      30.877
  O      181.108      38.779      29.589
  O      181.465      37.403      31.658
  H      181.195      36.760      30.972
  H      185.209      39.724      30.647
  H      183.926      40.659      31.376
  H      183.893      40.318      29.663

 6  7  8  9  10  11  12  13  14  15  16  26  31  32  33  34  35 0
 6-311+G(2d,p)
 ****
 36  37 0
 6-311+G(2d,p)
 ****
 1  2  3  4  5  17  18  19  20  21  22  23  24  25 0
 3-21G
 ****
 27  28  29  30  38  39  40  41  42  43  44  45 0
 3-21G
 ****


