%nproc=1
%NoSave
%Mem=1900MB
#P OB98/GEN NMR

erre ene a

0 1
  C      744.520    -159.151     489.601
  O      743.975    -158.529     490.760
  P      742.378    -158.449     490.900
  C      742.038    -160.540     492.375
  O      741.810    -159.941     491.103
  C      740.916    -160.152     493.361
  O      739.687    -160.809     492.962
  C      741.155    -160.570     494.816
  O      741.862    -159.670     495.668
  C      739.733    -160.653     495.348
  O      739.277    -159.333     495.734
  C      738.926    -161.132     494.144
  N      735.652    -164.719     495.797
  C      735.660    -163.374     495.908
  N      736.560    -162.489     495.435
  C      737.551    -163.121     494.784
  C      737.684    -164.491     494.590
  C      736.683    -165.311     495.133
  N      736.687    -166.683     495.028
  N      738.834    -164.769     493.877
  C      739.391    -163.591     493.665
  N      738.647    -162.565     494.183
  O      741.671    -157.628     489.873
  O      742.192    -157.815     492.363
  H      739.467    -158.749     494.975
  H      741.424    -157.211     492.344
  H      734.811    -162.945     496.448
  H      740.332    -163.437     493.150
  H      737.958    -160.625     494.061
  H      739.653    -161.281     496.238
  H      741.626    -161.561     494.857
  H      740.757    -159.066     493.309
  H      743.000    -160.217     492.764
  H      735.955    -167.201     495.483
  H      737.477    -167.141     494.583
  H      742.095    -161.624     492.222
  P      742.953    -160.192     496.724
  C      744.958    -159.478     495.205
  O      744.270    -160.513     495.866
  O      742.500    -161.310     497.602
  O      743.352    -158.852     497.501
  H      743.842    -158.207     496.964
  H      745.927    -159.862     494.859
  H      745.135    -158.633     495.874
  H      744.394    -159.139     494.333
  H      745.588    -159.127     489.652
  H      744.193    -158.626     488.728
  H      744.188    -160.167     489.552

 3  4  5  6  7  8  9  10  11  12  22  25  29  30  31  32 0
 6-311+G(2d,p)
 ****
 33  36  37 0
 6-311+G(2d,p)
 ****
 1  2  13  14  15  16  17  18  19  20  21  23  24  26 0
 3-21G
 ****
 27  28  34  35  38  39  40  41  42  43  44  45  46  47  48 0
 3-21G
 ****


