%nproc=1
%NoSave
%Mem=1900MB
#P OB98/GEN NMR

erre ene a

0 1
  C     -893.760    1022.058     126.815
  O     -893.570    1021.800     125.429
  H     -894.000    1021.119     127.317
  H     -894.580    1022.761     126.955
  H     -892.840    1022.460     127.252
  P     -893.290    1023.075     124.498
  C     -895.670    1022.745     123.463
  O     -894.730    1023.641     124.053
  C     -896.860    1023.525     122.955
  O     -897.530    1024.201     124.065
  C     -896.520    1024.640     121.965
  O     -896.280    1024.150     120.660
  C     -897.770    1025.500     122.034
  O     -898.800    1025.013     121.174
  C     -898.170    1025.379     123.519
  N     -897.830    1026.576     124.286
  C     -898.880    1027.128     125.042
  O     -900.000    1026.633     125.080
  N     -898.600    1028.264     125.723
  C     -897.410    1028.939     125.693
  O     -897.230    1030.003     126.273
  C     -896.350    1028.336     124.855
  C     -896.610    1027.205     124.199
  O     -892.730    1022.416     123.152
  O     -892.360    1024.091     125.057
  H     -891.770    1022.579     123.087
  H     -899.540    1025.652     121.246
  H     -899.340    1028.669     126.274
  H     -895.400    1028.855     124.803
  H     -895.850    1026.750     123.570
  H     -899.250    1025.212     123.612
  H     -897.550    1026.532     121.740
  H     -895.660    1025.216     122.328
  H     -897.600    1022.823     122.514
  H     -896.010    1022.025     124.210
  H     -895.170    1022.215     122.646
  P     -895.690    1025.179     119.559
  C     -897.900    1025.231     118.090
  O     -896.990    1025.923     118.955
  O     -895.240    1024.174     118.418
  O     -894.640    1026.081     120.112
  H     -895.740    1023.342     118.438
  H     -898.689    1025.893     117.800
  H     -898.312    1024.389     118.606
  H     -897.378    1024.895     117.219

 6  7  8  9  10  11  12  13  14  15  16  27  31  32  33  34  35 0
 6-311+G(2d,p)
 ****
 36  37 0
 6-311+G(2d,p)
 ****
 1  2  3  4  5  17  18  19  20  21  22  23  24  25 0
 3-21G
 ****
 26  28  29  30  38  39  40  41  42  43  44  45 0
 3-21G
 ****


