%nproc=1
%NoSave
%Mem=1900MB
#P OB98/GEN NMR

erre ene a

0 1
  C      185.232     213.980     585.037
  O      184.754     213.302     586.173
  P      185.786     212.561     587.151
  C      187.635     210.778     586.914
  O      186.499     211.390     586.306
  C      187.689     209.287     586.585
  O      188.181     209.090     585.230
  C      188.642     208.490     587.477
  O      188.061     208.249     588.748
  C      188.852     207.248     586.640
  O      187.760     206.325     586.798
  C      188.838     207.816     585.192
  N      192.391     205.740     582.141
  C      191.201     205.258     582.627
  N      190.351     205.862     583.469
  C      190.803     207.074     583.852
  C      192.003     207.677     583.464
  C      192.798     206.970     582.551
  N      193.965     207.471     582.010
  N      192.129     208.912     584.075
  C      191.032     209.039     584.821
  N      190.183     207.982     584.651
  O      185.237     212.137     588.495
  O      186.965     213.627     587.330
  H      187.752     206.046     587.741
  H      187.053     213.863     588.287
  H      190.928     204.270     582.287
  H      190.818     209.888     585.468
  H      188.276     207.171     584.511
  H      189.767     206.704     586.895
  H      189.596     209.023     587.575
  H      186.672     208.877     586.650
  H      187.566     210.902     588.009
  H      194.380     206.928     581.261
  H      194.131     208.478     582.066
  H      188.545     211.294     586.557
  P      188.995     208.177     590.048
  C      190.942     206.688     590.845
  O      189.907     206.856     589.879
  O      188.294     208.322     591.364
  O      190.060     209.380     589.827
  H      190.303     209.752     590.693
  H      191.783     207.349     590.602
  H      191.277     205.656     590.835
  H      190.571     206.929     591.857
  H      184.409     214.411     584.506
  H      185.746     213.291     584.400
  H      185.905     214.754     585.341

 3  4  5  6  7  8  9  10  11  12  22  25  29  30  31  32 0
 6-311+G(2d,p)
 ****
 33  36  37 0
 6-311+G(2d,p)
 ****
 1  2  13  14  15  16  17  18  19  20  21  23  24  26 0
 3-21G
 ****
 27  28  34  35  38  39  40  41  42  43  44  45  46  47  48 0
 3-21G
 ****


