%nproc=1
%NoSave
%Mem=1900MB
#P OB98/GEN NMR

erre ene a

0 1
  C      651.756    -938.427     -49.174
  O      651.648    -939.693     -48.547
  P      650.439    -939.903     -47.497
  C      648.738    -940.376     -49.428
  O      649.091    -939.566     -48.322
  C      647.508    -941.217     -49.102
  O      646.512    -940.411     -48.438
  C      646.830    -941.830     -50.314
  O      647.493    -943.012     -50.722
  C      645.420    -942.077     -49.787
  O      645.365    -943.288     -49.007
  C      645.203    -940.844     -48.896
  N      640.698    -939.027     -50.310
  C      641.032    -940.271     -49.792
  N      640.016    -941.134     -49.594
  N      642.266    -940.622     -49.507
  C      643.167    -939.663     -49.791
  C      642.964    -938.403     -50.322
  C      641.608    -937.998     -50.569
  O      641.246    -936.892     -50.930
  N      644.140    -937.713     -50.441
  C      645.058    -938.549     -50.002
  N      644.522    -939.745     -49.561
  O      650.605    -938.637     -46.523
  O      650.431    -941.204     -46.780
  H      645.770    -944.014     -49.515
  H      651.070    -938.907     -45.703
  H      639.734    -938.791     -50.498
  H      646.122    -938.360     -49.957
  H      644.609    -941.080     -48.006
  H      644.686    -942.196     -50.586
  H      639.057    -940.929     -49.814
  H      646.785    -941.107     -51.132
  H      640.257    -942.037     -49.213
  H      647.815    -941.999     -48.393
  H      649.583    -941.043     -49.685
  H      648.547    -939.726     -50.287
  P      648.495    -942.930     -51.974
  C      650.608    -942.886     -50.448
  O      649.851    -942.243     -51.468
  O      647.823    -941.793     -52.889
  O      648.675    -944.222     -52.714
  H      647.960    -942.041     -53.841
  H      651.659    -942.621     -50.586
  H      650.492    -943.979     -50.504
  H      650.284    -942.538     -49.470
  H      652.594    -938.429     -49.839
  H      651.893    -937.671     -48.429
  H      650.862    -938.225     -49.727

 3  4  5  6  7  8  9  10  11  12  23  26  30  31 0
 6-311+G(2d,p)
 ****
 33  35  36  37  38 0
 6-311+G(2d,p)
 ****
 1  2  13  14  15  16  17  18  19  20  21  22  24  25 0
 3-21G
 ****
 27  28  29  32  34  39  40  41  42  43  44  45  46  47  48  49 0
 3-21G
 ****


