%nproc=1
%NoSave
%Mem=1900MB
#P OB98/GEN NMR

erre ene a

0 1
  C     -113.077    -204.772     138.526
  O     -112.284    -205.252     139.591
  H     -113.138    -203.683     138.598
  H     -114.087    -205.185     138.608
  H     -112.648    -205.037     137.557
  P     -111.658    -206.719     139.484
  C     -113.700    -207.996     140.416
  O     -112.862    -207.766     139.291
  C     -114.369    -209.371     140.354
  O     -115.448    -209.343     139.396
  C     -113.406    -210.472     139.901
  O     -112.653    -211.064     140.947
  C     -114.358    -211.486     139.270
  O     -114.857    -212.412     140.250
  C     -115.497    -210.613     138.724
  N     -114.868    -212.763     134.127
  C     -114.675    -213.318     135.382
  N     -114.220    -214.591     135.398
  N     -114.888    -212.671     136.494
  C     -115.244    -211.378     136.319
  C     -115.445    -210.710     135.129
  C     -115.272    -211.456     133.897
  O     -115.449    -211.014     132.764
  N     -115.758    -209.390     135.334
  C     -115.654    -209.238     136.642
  N     -115.424    -210.436     137.285
  O     -111.172    -207.028     140.984
  O     -110.517    -206.866     138.520
  H     -115.325    -211.898     140.935
  H     -110.387    -207.606     140.960
  H     -114.711    -213.319     133.304
  H     -115.786    -208.305     137.175
  H     -116.476    -211.050     138.947
  H     -113.847    -212.079     138.505
  H     -113.957    -215.104     134.574
  H     -112.734    -210.102     139.117
  H     -113.884    -214.972     136.288
  H     -114.813    -209.604     141.331
  H     -114.459    -207.212     140.403
  H     -113.128    -207.889     141.341
  P     -111.150    -211.549     140.705
  C     -111.749    -213.940     139.796
  O     -111.158    -212.675     139.579
  O     -110.815    -212.363     142.037
  O     -110.158    -210.463     140.450
  H     -110.307    -211.812     142.665
  H     -111.643    -214.539     138.916
  H     -112.788    -213.815     140.019
  H     -111.264    -214.424     140.618

 6  7  8  9  10  11  12  13  14  15  26  29  33  34 0
 6-311+G(2d,p)
 ****
 36  38  39  40  41 0
 6-311+G(2d,p)
 ****
 1  2  3  4  5  16  17  18  19  20  21  22  23  24  25 0
 3-21G
 ****
 27  28  30  31  32  35  37  42  43  44  45  46  47 0
 3-21G
 ****
 48  49 0
 3-21G
 ****


