%nproc=1
%NoSave
%Mem=1900MB
#P OB98/GEN NMR

erre ene a

0 1
  C      440.333     244.523     -47.325
  O      441.083     243.326     -47.421
  H      439.667     244.466     -46.461
  H      441.022     245.361     -47.182
  H      439.752     244.692     -48.236
  P      440.314     242.014     -47.929
  C      440.642     242.267     -50.492
  O      441.019     241.581     -49.309
  C      441.720     242.122     -51.567
  O      442.788     243.065     -51.278
  C      442.338     240.717     -51.648
  O      442.573     240.407     -53.025
  C      443.680     240.887     -50.949
  O      444.651     239.939     -51.380
  C      444.024     242.332     -51.312
  N      448.501     244.737     -51.006
  C      447.643     244.552     -52.032
  N      446.436     243.940     -52.018
  C      446.116     243.555     -50.769
  C      446.885     243.684     -49.620
  C      448.140     244.290     -49.777
  N      449.050     244.422     -48.747
  N      446.228     243.116     -48.543
  C      445.103     242.634     -49.038
  N      444.993     242.877     -50.380
  O      438.899     242.606     -48.399
  O      440.159     240.928     -46.919
  H      445.536     240.261     -51.133
  H      438.287     242.630     -47.641
  H      447.971     244.933     -52.994
  H      444.359     242.081     -48.482
  H      444.454     242.422     -52.322
  H      443.543     240.777     -49.870
  H      441.728     239.932     -51.189
  H      441.293     242.412     -52.534
  H      440.512     243.334     -50.262
  H      449.965     244.767     -48.978
  H      448.843     243.996     -47.859
  H      439.686     241.868     -50.852
  P      441.746     239.184     -53.659
  C      439.462     240.295     -54.251
  O      440.705     239.771     -54.723
  O      440.815     238.709     -52.452
  O      442.610     238.072     -54.168
  H      440.669     237.748     -52.495
  H      438.884     240.645     -55.081
  H      439.649     241.106     -53.579
  H      438.922     239.526     -53.740

 6  7  8  9  10  11  12  13  14  15  25  28  32  33  34  35 0
 6-311+G(2d,p)
 ****
 36  39  40 0
 6-311+G(2d,p)
 ****
 1  2  3  4  5  16  17  18  19  20  21  22  23  24 0
 3-21G
 ****
 26  27  29  30  31  37  38  41  42  43  44  45  46  47 0
 3-21G
 ****
 48 0
 3-21G
 ****


