%nproc=1
%NoSave
%Mem=1900MB
#P OB98/GEN NMR

erre ene a

0 1
  C        0.781    -118.479    -207.081
  O       -0.649    -118.383    -207.131
  P       -1.500    -118.946    -208.368
  C       -2.928    -116.882    -208.950
  O       -2.919    -118.199    -208.402
  C       -3.340    -115.838    -207.910
  O       -2.212    -115.449    -207.101
  C       -3.902    -114.546    -208.496
  O       -5.249    -114.723    -208.893
  C       -3.695    -113.578    -207.334
  O       -4.747    -113.723    -206.364
  C       -2.361    -114.060    -206.753
  N        0.072    -109.571    -206.453
  C       -1.024    -110.047    -205.823
  N       -1.615    -111.254    -205.963
  C       -0.939    -112.014    -206.841
  C        0.192    -111.662    -207.561
  C        0.704    -110.371    -207.342
  N        1.812    -109.882    -207.996
  N        0.586    -112.694    -208.387
  C       -0.281    -113.660    -208.153
  N       -1.221    -113.297    -207.229
  O       -1.592    -120.437    -208.420
  O       -0.751    -118.381    -209.667
  H       -4.865    -114.676    -206.203
  H       -0.895    -118.986    -210.419
  H       -1.493    -109.368    -205.116
  H       -0.267    -114.634    -208.625
  H       -2.354    -114.009    -205.658
  H       -3.687    -112.531    -207.654
  H       -3.294    -114.226    -209.349
  H       -4.074    -116.304    -207.239
  H       -3.637    -116.863    -209.788
  H        2.097    -108.934    -207.807
  H        2.262    -110.455    -208.695
  H       -1.926    -116.657    -209.330
  P       -5.806    -113.979    -210.196
  C       -7.514    -112.652    -208.814
  O       -7.322    -113.555    -209.886
  O       -5.596    -114.693    -211.490
  O       -5.041    -112.570    -210.181
  H       -4.932    -112.252    -211.098
  H       -7.473    -113.198    -207.867
  H       -8.499    -112.190    -208.914
  H       -6.751    -111.868    -208.819
  H        1.136    -118.042    -206.171
  H        1.203    -117.958    -207.915
  H        1.071    -119.508    -207.119

 3  4  5  6  7  8  9  10  11  12  22  25  29  30  31  32 0
 6-311+G(2d,p)
 ****
 33  36  37 0
 6-311+G(2d,p)
 ****
 1  2  13  14  15  16  17  18  19  20  21  23  24  26 0
 3-21G
 ****
 27  28  34  35  38  39  40  41  42  43  44  45  46  47  48 0
 3-21G
 ****


