%nproc=1
%NoSave
%Mem=1900MB
#P OB98/GEN NMR

erre ene a

0 1
  C       68.175     205.555      68.335
  O       69.552     205.282      68.527
  P       70.208     203.894      68.053
  C       72.169     204.738      66.593
  O       70.858     204.201      66.620
  C       73.153     203.710      66.030
  O       73.138     202.537      66.885
  C       72.835     203.247      64.602
  O       74.086     203.013      63.943
  C       72.098     201.941      64.827
  O       72.131     201.091      63.690
  C       72.840     201.398      66.054
  N       72.062     200.404      66.784
  C       72.300     199.058      66.501
  O       73.121     198.726      65.648
  N       71.596     198.107      67.198
  C       70.676     198.468      68.037
  N       70.049     197.489      68.744
  C       70.318     199.877      68.284
  C       71.059     200.779      67.648
  O       69.287     202.724      68.082
  O       71.501     203.733      68.976
  H       71.829     200.203      63.961
  H       71.301     203.315      69.850
  H       69.523     200.127      68.973
  H       70.884     201.837      67.787
  H       73.802     200.967      65.753
  H       71.049     202.149      65.060
  H       72.261     203.985      64.036
  H       74.162     204.136      66.078
  H       70.441     196.556      68.676
  H       72.463     204.983      67.617
  H       69.579     197.697      69.619
  H       72.180     205.659      66.000
  P       74.241     203.486      62.416
  C       75.547     205.727      62.410
  O       74.290     205.087      62.395
  O       72.772     203.190      61.836
  O       75.262     202.767      61.600
  H       72.834     203.048      60.874
  H       75.389     206.809      62.386
  H       76.134     205.442      61.534
  H       76.095     205.475      63.322
  H       67.947     206.527      68.720
  H       67.591     204.821      68.850
  H       67.947     205.523      67.290

 3  4  5  6  7  8  9  10  11  12  13  23  27  28  29  30  32 0
 6-311+G(2d,p)
 ****
 34  35 0
 6-311+G(2d,p)
 ****
 1  2  14  15  16  17  18  19  20  21  22  24  25  26 0
 3-21G
 ****
 31  33  36  37  38  39  40  41  42  43  44  45  46 0
 3-21G
 ****


