%nproc=1
%NoSave
%Mem=1900MB
#P OB98/GEN NMR

erre ene a

0 1
  C      131.427     187.456    -328.664
  O      130.188     187.173    -329.291
  P      130.040     187.211    -330.890
  C      128.565     185.109    -331.184
  O      128.620     186.536    -331.188
  C      127.129     184.642    -330.912
  O      126.783     184.923    -329.539
  C      126.068     185.343    -331.757
  O      126.057     184.828    -333.079
  C      124.819     185.072    -330.928
  O      124.338     183.729    -331.174
  C      125.359     185.172    -329.483
  N      125.072     186.470    -328.872
  C      123.813     186.605    -328.274
  O      123.008     185.677    -328.261
  N      123.510     187.799    -327.656
  C      124.374     188.780    -327.665
  N      124.041     189.904    -326.979
  C      125.684     188.679    -328.324
  C      125.970     187.520    -328.901
  O      131.190     186.614    -331.641
  O      129.774     188.748    -331.232
  H      123.495     183.643    -330.695
  H      130.602     189.276    -331.379
  H      126.365     189.527    -328.313
  H      126.920     187.368    -329.390
  H      124.937     184.380    -328.863
  H      124.000     185.758    -331.142
  H      126.259     186.423    -331.793
  H      127.089     183.561    -331.061
  H      123.208     189.858    -326.393
  H      129.215     184.734    -330.391
  H      124.741     190.578    -326.687
  H      128.919     184.727    -332.144
  P      126.103     185.889    -334.287
  C      126.625     183.898    -335.886
  O      125.818     185.033    -335.624
  O      127.656     186.270    -334.386
  O      125.234     187.086    -334.092
  H      127.818     187.136    -333.958
  H      126.154     183.316    -336.676
  H      126.714     183.284    -334.989
  H      127.621     184.219    -336.215
  H      131.316     187.378    -327.603
  H      131.737     188.448    -328.918
  H      132.164     186.756    -328.998

 3  4  5  6  7  8  9  10  11  12  13  23  27  28  29  30  32 0
 6-311+G(2d,p)
 ****
 34  35 0
 6-311+G(2d,p)
 ****
 1  2  14  15  16  17  18  19  20  21  22  24  25  26 0
 3-21G
 ****
 31  33  36  37  38  39  40  41  42  43  44  45  46 0
 3-21G
 ****


