%nproc=1
%NoSave
%Mem=1900MB
#P OB98/GEN NMR

erre ene a

0 1
  C      -47.873     -27.661      27.413
  O      -47.632     -27.340      28.772
  P      -47.203     -28.540      29.751
  C      -49.664     -28.926      30.487
  O      -48.492     -29.484      29.905
  C      -50.695     -30.009      30.810
  O      -51.025     -30.720      29.592
  C      -50.223     -31.033      31.843
  O      -51.343     -31.384      32.655
  C      -49.831     -32.233      30.999
  O      -49.892     -33.446      31.747
  C      -50.839     -32.129      29.845
  N      -50.384     -32.832      28.650
  C      -50.676     -34.197      28.570
  O      -51.220     -34.767      29.516
  N      -50.299     -34.891      27.447
  C      -49.596     -34.298      26.533
  N      -49.248     -35.027      25.438
  C      -49.160     -32.891      26.636
  C      -49.604     -32.221      27.698
  O      -47.102     -27.819      31.176
  O      -45.932     -29.228      29.372
  H      -49.158     -33.437      32.402
  H      -46.413     -28.235      31.729
  H      -48.544     -32.455      25.864
  H      -49.355     -31.177      27.846
  H      -51.812     -32.543      30.144
  H      -48.806     -32.107      30.627
  H      -49.412     -30.657      32.474
  H      -51.612     -29.516      31.155
  H      -49.546     -35.993      25.398
  H      -50.115     -28.227      29.777
  H      -48.702     -34.649      24.676
  H      -49.392     -28.369      31.389
  P      -51.061     -31.779      34.184
  C      -51.330     -34.296      33.749
  O      -50.444     -33.259      34.123
  O      -52.545     -32.074      34.717
  O      -50.363     -30.790      35.054
  H      -52.519     -32.268      35.672
  H      -50.755     -35.216      33.616
  H      -51.830     -34.053      32.809
  H      -52.069     -34.456      34.539
  H      -48.148     -26.775      26.881
  H      -48.667     -28.375      27.351
  H      -46.986     -28.075      26.982

 3  4  5  6  7  8  9  10  11  12  13  21  23  27  28  29  30  32 0
 6-311+G(2d,p)
 ****
 34  35 0
 6-311+G(2d,p)
 ****
 1  2  14  15  16  17  18  19  20  22  24  25  26 0
 3-21G
 ****
 31  33  36  37  38  39  40  41  42  43  44  45  46 0
 3-21G
 ****


