%nproc=1
%NoSave
%Mem=1900MB
#P OB98/GEN NMR

erre ene a

0 1
  C       89.852     418.052     162.750
  O       91.237     418.150     162.489
  H       89.607     418.703     163.592
  H       89.596     417.023     163.017
  H       89.274     418.365     161.878
  P       91.795     417.334     161.225
  C       94.092     416.217     161.676
  O       93.399     417.403     161.313
  C       95.445     416.551     162.296
  O       96.187     417.404     161.378
  C       95.358     417.293     163.642
  O       96.450     416.854     164.460
  C       95.614     418.738     163.247
  O       96.064     419.533     164.341
  C       96.647     418.537     162.139
  N       98.048     423.369     162.183
  C       98.066     422.420     163.187
  N       98.531     422.817     164.391
  N       97.666     421.188     163.025
  C       97.258     420.920     161.761
  C       97.186     421.768     160.683
  C       97.607     423.137     160.884
  O       97.595     424.027     160.038
  N       96.687     421.122     159.578
  C       96.464     419.886     159.990
  N       96.795     419.716     161.306
  O       91.443     418.302     160.000
  O       91.222     415.968     161.040
  H       96.475     420.344     163.975
  H       90.583     418.056     159.611
  H       98.353     424.310     162.366
  H       96.065     419.086     159.381
  H       97.644     418.304     162.536
  H       94.698     419.190     162.850
  H       98.899     423.739     164.576
  H       94.414     417.153     164.175
  H       98.596     422.127     165.128
  H       96.020     415.623     162.400
  H       94.249     415.609     160.778
  H       93.483     415.648     162.387
  P       96.116     415.931     165.726
  C       98.135     416.875     167.067
  O       97.468     415.729     166.565
  O       95.892     414.490     165.065
  O       94.924     416.370     166.510
  H       95.282     413.962     165.617
  H       99.012     416.572     167.599
  H       97.483     417.407     167.728
  H       98.413     417.511     166.253

 6  7  8  9  10  11  12  13  14  15  26  29  33  34 0
 6-311+G(2d,p)
 ****
 36  38  39  40  41 0
 6-311+G(2d,p)
 ****
 1  2  3  4  5  16  17  18  19  20  21  22  23  24  25 0
 3-21G
 ****
 27  28  30  31  32  35  37  42  43  44  45  46  47 0
 3-21G
 ****
 48  49 0
 3-21G
 ****


