%nproc=1
%NoSave
%Mem=1900MB
#P OB98/GEN NMR

erre ene a

0 1
  C     -265.267    -342.583     420.340
  O     -265.913    -342.034     419.182
  P     -266.377    -343.060     418.038
  C     -265.154    -341.689     416.194
  O     -266.374    -342.291     416.628
  C     -265.420    -340.467     415.307
  O     -266.056    -340.873     414.058
  C     -266.349    -339.428     415.950
  O     -265.993    -338.127     415.450
  C     -267.707    -339.801     415.394
  O     -268.637    -338.727     415.511
  C     -267.330    -340.190     413.964
  N     -272.209    -340.606     412.781
  C     -271.547    -339.609     413.462
  N     -272.278    -338.543     413.853
  N     -270.261    -339.639     413.737
  C     -269.648    -340.754     413.240
  C     -270.196    -341.806     412.564
  C     -271.630    -341.771     412.292
  O     -272.274    -342.627     411.702
  N     -269.260    -342.760     412.258
  C     -268.136    -342.270     412.757
  N     -268.313    -341.040     413.337
  O     -267.941    -343.261     418.347
  O     -265.650    -344.369     418.064
  H     -269.512    -339.055     415.191
  H     -268.088    -344.144     418.711
  H     -273.209    -340.527     412.609
  H     -267.172    -342.775     412.735
  H     -267.200    -339.309     413.310
  H     -268.112    -340.665     415.944
  H     -273.261    -338.425     413.634
  H     -266.324    -339.406     417.041
  H     -271.809    -337.778     414.316
  H     -264.460    -340.003     415.058
  H     -264.552    -342.414     415.645
  H     -264.569    -341.416     417.080
  P     -265.556    -337.027     416.533
  C     -267.866    -335.824     416.419
  O     -266.463    -335.731     416.248
  O     -264.098    -336.577     416.052
  O     -265.558    -337.513     417.945
  H     -263.585    -336.225     416.810
  H     -268.133    -335.334     417.356
  H     -268.206    -336.870     416.452
  H     -268.354    -335.307     415.594
  H     -265.014    -341.793     421.015
  H     -264.377    -343.097     420.042
  H     -265.929    -343.269     420.826

 3  4  5  6  7  8  9  10  11  12  23  26  30  31 0
 6-311+G(2d,p)
 ****
 33  35  36  37  38 0
 6-311+G(2d,p)
 ****
 1  2  13  14  15  16  17  18  19  20  21  22  24  25 0
 3-21G
 ****
 27  28  29  32  34  39  40  41  42  43  44  45  46  47  48  49 0
 3-21G
 ****


