%nproc=1
%NoSave
%Mem=1900MB
#P OB98/GEN NMR

erre ene a

0 1
  C      -59.097    -899.478     530.788
  O      -59.672    -899.618     532.075
  P      -58.935    -898.908     533.331
  C      -61.102    -897.608     533.996
  O      -59.750    -897.538     533.575
  C      -61.822    -896.268     533.763
  O      -61.153    -895.228     534.542
  C      -61.853    -895.818     532.290
  O      -63.135    -895.168     532.082
  C      -60.726    -894.798     532.231
  O      -60.909    -893.888     531.138
  C      -60.858    -894.148     533.615
  N      -59.646    -893.428     534.024
  C      -59.842    -892.188     534.621
  O      -60.946    -891.648     534.747
  N      -58.704    -891.538     535.041
  C      -57.409    -891.968     534.839
  O      -56.424    -891.368     535.221
  C      -57.270    -893.248     534.088
  C      -58.394    -893.878     533.714
  O      -57.584    -898.428     532.624
  O      -58.776    -899.808     534.506
  H      -57.688    -898.128     531.693
  H      -60.808    -894.378     530.292
  H      -58.821    -890.668     535.511
  H      -56.284    -893.568     533.848
  H      -58.314    -894.808     533.138
  H      -61.705    -893.438     533.636
  H      -59.751    -895.308     532.112
  H      -61.723    -896.648     531.592
  H      -62.856    -896.368     534.136
  H      -61.167    -897.858     535.075
  H      -61.603    -898.438     533.447
  P      -64.121    -895.808     530.989
  C      -66.357    -895.888     532.355
  O      -65.294    -896.598     531.777
  O      -63.211    -896.998     530.413
  O      -64.562    -894.848     529.917
  H      -62.788    -897.528     531.113
  H      -67.153    -896.618     532.616
  H      -66.784    -895.178     531.646
  H      -66.035    -895.368     533.250
  H      -59.696    -900.000     530.071
  H      -58.109    -899.888     530.792
  H      -59.052    -898.441     530.528

 3  4  5  6  7  8  9  10  11  12  13  24  28  29  30  31  32 0
 6-311+G(2d,p)
 ****
 33  34 0
 6-311+G(2d,p)
 ****
 1  2  14  15  16  17  18  19  20  21  22  23  25  26  27 0
 3-21G
 ****
 35  36  37  38  39  40  41  42  43  44  45 0
 3-21G
 ****


