%nproc=1
%NoSave
%Mem=1900MB
#P OB98/GEN NMR

erre ene a

0 1
  C      -83.478    -195.419     -11.997
  O      -83.754    -194.613     -10.873
  H      -83.848    -194.905     -12.891
  H      -83.986    -196.383     -11.920
  H      -82.400    -195.570     -12.105
  P      -83.488    -195.210      -9.403
  C      -81.049    -194.679      -8.795
  O      -82.395    -194.219      -8.745
  C      -80.082    -193.549      -9.153
  O      -80.307    -193.134     -10.527
  C      -80.226    -192.304      -8.265
  O      -78.928    -191.869      -7.848
  C      -80.859    -191.273      -9.190
  O      -80.585    -189.936      -8.776
  C      -80.275    -191.692     -10.543
  N      -81.017    -191.149     -11.680
  C      -80.449    -190.041     -12.324
  O      -79.396    -189.556     -11.904
  N      -81.101    -189.494     -13.396
  C      -82.253    -189.969     -13.762
  N      -82.852    -189.373     -14.829
  C      -82.913    -191.105     -13.084
  C      -82.241    -191.643     -12.065
  O      -83.119    -196.655      -9.374
  O      -84.819    -194.871      -8.584
  H      -81.087    -189.322      -9.358
  H      -84.878    -195.462      -7.794
  H      -83.875    -191.459     -13.420
  H      -82.645    -192.490     -11.512
  H      -79.225    -191.374     -10.630
  H      -81.949    -191.408      -9.197
  H      -80.836    -192.473      -7.379
  H      -79.061    -193.947      -9.120
  H      -82.370    -188.598     -15.267
  H      -80.982    -195.488      -9.532
  H      -83.752    -189.655     -15.196
  H      -80.786    -195.072      -7.804
  P      -78.717    -191.686      -6.264
  C      -79.269    -194.146      -5.658
  O      -78.296    -193.113      -5.656
  O      -80.207    -191.466      -5.724
  O      -77.820    -190.546      -5.904
  H      -80.371    -190.517      -5.564
  H      -78.850    -195.031      -5.226
  H      -79.572    -194.349      -6.664
  H      -80.118    -193.837      -5.085

 6  7  8  9  10  11  12  13  14  15  16  26  30  31  32  33  35 0
 6-311+G(2d,p)
 ****
 37  38 0
 6-311+G(2d,p)
 ****
 1  2  3  4  5  17  18  19  20  21  22  23  24  25 0
 3-21G
 ****
 27  28  29  34  36  39  40  41  42  43  44  45  46 0
 3-21G
 ****


