%nproc=1
%NoSave
%Mem=1900MB
#P OB98/GEN NMR

erre ene a

0 1
  C      618.452      57.610    -340.528
  O      619.605      57.726    -339.731
  H      618.758      57.504    -341.575
  H      617.839      58.513    -340.427
  H      617.856      56.729    -340.248
  P      619.467      57.531    -338.142
  C      620.389      59.785    -337.270
  O      620.636      58.406    -337.459
  C      621.670      60.613    -337.425
  O      622.699      60.060    -336.569
  C      622.191      60.521    -338.866
  O      622.926      61.687    -339.247
  C      623.149      59.337    -338.808
  O      624.111      59.334    -339.864
  C      623.733      59.505    -337.408
  N      627.305      55.869    -337.465
  C      627.121      56.917    -338.337
  N      627.985      56.998    -339.372
  N      626.167      57.799    -338.209
  C      625.324      57.536    -337.174
  C      625.386      56.523    -336.262
  C      626.473      55.574    -336.388
  O      626.686      54.602    -335.652
  N      624.348      56.573    -335.363
  C      623.657      57.626    -335.733
  N      624.215      58.265    -336.831
  O      619.974      56.027    -337.903
  O      618.102      57.754    -337.575
  H      623.628      59.245    -340.690
  H      619.591      55.671    -337.077
  H      628.073      55.223    -337.593
  H      622.757      57.989    -335.252
  H      624.579      60.198    -337.430
  H      622.551      58.422    -338.922
  H      628.634      56.248    -339.608
  H      621.383      60.354    -339.579
  H      627.705      57.579    -340.168
  H      621.508      61.642    -337.100
  H      619.980      59.907    -336.257
  H      619.624      60.130    -337.971
  P      622.580      62.358    -340.669
  C      625.028      63.182    -341.121
  O      623.655      63.500    -340.938
  O      621.209      63.138    -340.383
  O      622.423      61.360    -341.778
  H      620.462      62.656    -340.782
  H      625.583      64.081    -341.288
  H      625.135      62.535    -341.966
  H      625.400      62.690    -340.246

 6  7  8  9  10  11  12  13  14  15  26  29  33  34 0
 6-311+G(2d,p)
 ****
 36  38  39  40  41 0
 6-311+G(2d,p)
 ****
 1  2  3  4  5  16  17  18  19  20  21  22  23  24  25 0
 3-21G
 ****
 27  28  30  31  32  35  37  42  43  44  45  46  47 0
 3-21G
 ****
 48  49 0
 3-21G
 ****


