%nproc=1
%NoSave
%Mem=1900MB
#P OB98/GEN NMR

erre ene a

0 1
  C     -147.284    -289.515     133.560
  O     -146.627    -288.775     132.552
  H     -147.581    -288.856     134.378
  H     -148.181    -289.974     133.135
  H     -146.629    -290.305     133.937
  P     -145.298    -287.986     132.983
  C     -143.397    -289.435     131.978
  O     -144.197    -288.267     131.846
  C     -142.729    -289.762     130.645
  O     -143.766    -290.045     129.671
  C     -141.838    -288.641     130.081
  O     -140.505    -289.120     129.883
  C     -142.442    -288.325     128.723
  O     -141.462    -288.090     127.712
  C     -143.285    -289.557     128.412
  N     -144.910    -289.792     123.590
  C     -143.977    -290.507     124.253
  N     -143.666    -290.469     125.564
  C     -144.453    -289.595     126.215
  C     -145.463    -288.813     125.679
  C     -145.670    -288.920     124.295
  N     -146.585    -288.151     123.609
  N     -146.047    -288.031     126.658
  C     -145.373    -288.305     127.756
  N     -144.388    -289.231     127.532
  O     -144.764    -288.826     134.238
  O     -145.499    -286.549     133.325
  H     -140.977    -287.285     127.973
  H     -144.545    -288.219     134.969
  H     -143.396    -291.200     123.649
  H     -145.522    -287.835     128.719
  H     -142.695    -290.353     127.944
  H     -143.067    -287.427     128.810
  H     -141.822    -287.753     130.721
  H     -142.145    -290.683     130.769
  H     -144.027    -290.279     132.276
  H     -146.586    -288.210     122.603
  H     -147.076    -287.424     124.108
  H     -142.648    -289.266     132.758
  P     -139.316    -288.056     130.097
  C     -138.306    -289.387     132.092
  O     -138.101    -288.830     130.800
  O     -139.883    -287.120     131.267
  O     -138.974    -287.278     128.872
  H     -139.486    -286.230     131.204
  H     -137.407    -289.866     132.421
  H     -139.098    -290.105     132.049
  H     -138.567    -288.609     132.779

 6  7  8  9  10  11  12  13  14  15  25  28  32  33  34  35 0
 6-311+G(2d,p)
 ****
 36  39  40 0
 6-311+G(2d,p)
 ****
 1  2  3  4  5  16  17  18  19  20  21  22  23  24 0
 3-21G
 ****
 26  27  29  30  31  37  38  41  42  43  44  45  46  47  48 0
 3-21G
 ****


