%nproc=1
%NoSave
%Mem=1900MB
#P OB98/GEN NMR

erre ene a

0 1
  C      -98.489    -898.230     246.118
  O      -97.840    -898.910     247.177
  P      -96.327    -898.660     247.632
  C      -96.922    -897.040     249.605
  O      -96.250    -897.250     248.364
  C      -96.024    -896.370     250.670
  O      -94.838    -897.170     250.874
  C      -95.566    -895.000     250.224
  O      -96.411    -893.860     250.362
  C      -94.183    -894.830     250.811
  O      -94.212    -894.130     252.052
  C      -93.722    -896.280     251.020
  N      -88.679    -896.490     250.117
  C      -89.353    -895.930     251.197
  N      -88.606    -895.300     252.123
  N      -90.647    -895.980     251.332
  C      -91.292    -896.550     250.276
  C      -90.735    -897.120     249.156
  C      -89.300    -897.140     249.043
  O      -88.659    -897.610     248.121
  N      -91.704    -897.590     248.293
  C      -92.845    -897.280     248.900
  N      -92.640    -896.650     250.126
  O      -95.285    -898.940     246.593
  O      -96.120    -899.730     248.846
  H      -93.310    -893.820     252.239
  H      -95.164    -900.000     248.794
  H      -87.676    -896.470     250.075
  H      -93.836    -897.500     248.504
  H      -93.335    -896.420     252.036
  H      -93.530    -894.250     250.141
  H      -87.621    -895.140     252.018
  H      -95.400    -895.070     249.108
  H      -89.081    -894.710     252.790
  H      -96.553    -896.350     251.647
  H      -97.265    -898.020     249.954
  H      -97.832    -896.440     249.445
  P      -96.909    -892.870     249.183
  C      -99.227    -893.920     249.406
  O      -98.208    -893.530     248.527
  O      -95.784    -893.030     248.060
  O      -97.047    -891.440     249.609
  H      -95.847    -892.280     247.417
  H      -99.897    -894.610     248.870
  H      -99.793    -893.050     249.721
  H      -98.817    -894.440     250.272
  H      -99.493    -898.588     246.027
  H      -97.962    -898.408     245.204
  H      -98.502    -897.180     246.323

 3  4  5  6  7  8  9  10  11  12  23  26  30  31 0
 6-311+G(2d,p)
 ****
 33  35  36  37  38 0
 6-311+G(2d,p)
 ****
 1  2  13  14  15  16  17  18  19  20  21  22  24  25 0
 3-21G
 ****
 27  28  29  32  34  39  40  41  42  43  44  45  46  47  48  49 0
 3-21G
 ****


