%nproc=1
%NoSave
%Mem=1900MB
#P OB98/GEN NMR

erre ene a

0 1
  C     -230.622    -108.894      38.721
  O     -230.749    -107.820      39.636
  P     -229.641    -106.659      39.555
  C     -228.627    -107.406      41.844
  O     -228.415    -107.144      40.465
  C     -227.777    -106.453      42.685
  O     -226.391    -106.543      42.299
  C     -228.163    -104.986      42.549
  O     -229.272    -104.686      43.374
  C     -226.873    -104.292      42.973
  O     -226.766    -104.240      44.409
  C     -225.802    -105.215      42.374
  N     -221.851    -103.408      39.792
  C     -222.033    -103.546      41.156
  N     -220.992    -103.191      41.939
  N     -223.133    -103.994      41.700
  C     -224.093    -104.297      40.794
  C     -224.038    -104.190      39.424
  C     -222.798    -103.743      38.834
  O     -222.551    -103.696      37.631
  N     -225.219    -104.570      38.842
  C     -225.974    -104.937      39.857
  N     -225.332    -104.811      41.063
  O     -230.301    -105.468      40.391
  O     -229.252    -106.245      38.170
  H     -226.596    -105.137      44.749
  H     -230.717    -104.815      39.794
  H     -220.975    -103.074      39.430
  H     -226.979    -105.319      39.772
  H     -224.918    -105.293      43.019
  H     -226.824    -103.260      42.619
  H     -220.124    -102.815      41.593
  H     -228.383    -104.744      41.502
  H     -221.110    -103.281      42.942
  H     -227.852    -106.773      43.732
  H     -228.336    -108.437      42.062
  H     -229.690    -107.283      42.074
  P     -230.219    -103.469      42.930
  C     -229.402    -101.355      44.196
  O     -229.344    -102.132      43.016
  O     -231.245    -103.336      44.152
  O     -230.937    -103.684      41.639
  H     -232.125    -103.088      43.814
  H     -228.445    -100.845      44.328
  H     -229.600    -101.971      45.079
  H     -230.193    -100.608      44.094
  H     -231.416    -109.593      38.879
  H     -229.682    -109.382      38.872
  H     -230.672    -108.518      37.720

 3  4  5  6  7  8  9  10  11  12  23  26  30  31 0
 6-311+G(2d,p)
 ****
 33  35  36  37  38 0
 6-311+G(2d,p)
 ****
 1  2  13  14  15  16  17  18  19  20  21  22  24  25 0
 3-21G
 ****
 27  28  29  32  34  39  40  41  42  43  44  45  46  47  48  49 0
 3-21G
 ****


