%nproc=1
%NoSave
%Mem=1900MB
#P OB98/GEN NMR

erre ene a

0 1
  C     1174.549     250.241     556.653
  O     1175.199     251.333     557.319
  P     1176.330     252.108     556.502
  C     1178.358     250.635     557.147
  O     1177.488     251.059     556.120
  C     1179.680     250.069     556.577
  O     1180.537     249.591     557.644
  C     1179.447     248.876     555.629
  O     1180.479     248.931     554.618
  C     1179.707     247.665     556.505
  O     1179.998     246.499     555.736
  C     1180.852     248.198     557.387
  N     1184.046     245.268     560.112
  C     1184.165     245.885     558.904
  N     1183.258     246.637     558.230
  C     1182.122     246.755     558.956
  C     1181.838     246.184     560.182
  C     1182.867     245.411     560.760
  N     1182.710     244.770     561.972
  N     1180.558     246.501     560.588
  C     1180.076     247.250     559.606
  N     1180.996     247.444     558.625
  O     1177.028     253.037     557.609
  O     1175.829     252.937     555.351
  H     1180.015     245.741     556.361
  H     1176.763     253.965     557.477
  H     1185.139     245.755     558.408
  H     1179.067     247.654     559.564
  H     1181.830     248.154     556.856
  H     1178.821     247.464     557.119
  H     1178.473     248.847     555.140
  H     1180.201     250.854     556.067
  H     1177.878     249.862     557.765
  H     1183.489     244.218     562.305
  H     1181.837     244.813     562.459
  H     1178.557     251.477     557.835
  P     1179.996     248.980     553.093
  C     1181.294     246.859     552.326
  O     1180.048     247.463     552.582
  O     1181.229     249.651     552.337
  O     1178.721     249.707     552.865
  H     1180.912     250.084     551.522
  H     1181.276     245.826     552.701
  H     1182.127     247.377     552.816
  H     1181.468     246.835     551.249
  H     1173.818     249.810     557.305
  H     1175.275     249.500     556.392
  H     1174.070     250.599     555.766

 3  4  5  6  7  8  9  10  11  12  22  25  29  30  31  32 0
 6-311+G(2d,p)
 ****
 33  36  37 0
 6-311+G(2d,p)
 ****
 1  2  13  14  15  16  17  18  19  20  21  23  24  26 0
 3-21G
 ****
 27  28  34  35  38  39  40  41  42  43  44  45  46  47  48 0
 3-21G
 ****


