%nproc=1
%NoSave
%Mem=1900MB
#P OB98/GEN NMR

erre ene a

0 1
  C      226.362     916.488    -303.496
  O      226.441     917.393    -302.377
  P      227.904     917.907    -301.967
  C      228.951     920.268    -302.237
  O      227.826     919.498    -301.817
  C      228.614     921.780    -302.163
  O      227.738     922.160    -303.238
  C      227.909     922.190    -300.891
  O      228.811     922.337    -299.800
  C      227.337     923.555    -301.305
  O      228.348     924.572    -301.169
  C      226.994     923.337    -302.781
  N      222.547     925.403    -304.107
  C      223.795     925.980    -303.975
  N      223.876     927.284    -304.278
  N      224.880     925.339    -303.594
  C      224.640     924.010    -303.373
  C      223.456     923.318    -303.463
  C      222.273     924.058    -303.843
  O      221.131     923.606    -303.931
  N      223.615     922.000    -303.151
  C      224.909     921.880    -302.912
  N      225.574     923.076    -303.024
  O      228.759     917.690    -303.307
  O      228.499     917.174    -300.802
  H      229.031     924.384    -301.837
  H      229.697     917.566    -303.087
  H      221.751     925.947    -304.383
  H      225.422     920.947    -302.663
  H      227.292     924.178    -303.404
  H      226.480     923.864    -300.677
  H      223.113     927.836    -304.638
  H      227.085     921.501    -300.644
  H      224.796     927.728    -304.221
  H      229.559     922.331    -302.277
  H      229.212     920.019    -303.274
  H      229.815     920.026    -301.616
  P      228.827     921.169    -298.693
  C      230.771     919.909    -297.508
  O      230.346     921.080    -298.177
  O      228.614     919.847    -299.562
  O      227.772     921.318    -297.631
  H      228.178     919.154    -299.023
  H      230.381     919.005    -297.991
  H      230.421     919.948    -296.469
  H      231.844     919.865    -297.503
  H      225.340     916.221    -303.667
  H      226.930     915.607    -303.283
  H      226.757     916.965    -304.369

 3  4  5  6  7  8  9  10  11  12  23  26  30  31  33  0
 6-311+G(2d,p)
 ****
 35  36  37  38 0
 6-311+G(2d,p)
 ****
 1  2  13  14  15  16  17  18  19  20  21  22  24  25  27  28  29 0
 3-21G
 ****
 32  34  39  40  41  42  43  44  45  46  47  48  49 0
 3-21G
 ****


