%nproc=1
%NoSave
%Mem=1900MB
#P OB98/GEN NMR

erre ene a

0 1
  C     -302.292     315.765    -355.027
  O     -300.873     315.693    -355.105
  P     -299.959     316.458    -354.031
  C     -298.707     318.708    -354.019
  O     -299.797     317.967    -354.564
  C     -298.168     319.703    -355.045
  O     -297.654     318.967    -356.186
  C     -299.231     320.669    -355.568
  O     -298.614     321.944    -355.786
  C     -299.631     320.098    -356.913
  O     -300.134     321.123    -357.791
  C     -298.328     319.437    -357.370
  N     -298.255     317.820    -362.241
  C     -297.940     319.011    -361.684
  N     -298.008     319.379    -360.388
  C     -298.400     318.345    -359.625
  C     -298.742     317.072    -360.046
  C     -298.664     316.818    -361.426
  N     -298.969     315.598    -361.990
  N     -299.119     316.293    -358.972
  C     -298.986     317.067    -357.924
  N     -298.539     318.320    -358.263
  O     -298.672     315.776    -353.700
  O     -300.892     316.624    -352.748
  H     -299.464     321.840    -357.806
  H     -300.374     316.500    -351.928
  H     -297.599     319.774    -362.379
  H     -299.199     316.788    -356.906
  H     -297.663     320.160    -357.866
  H     -300.429     319.353    -356.776
  H     -300.085     320.778    -354.884
  H     -297.331     320.250    -354.596
  H     -297.915     318.006    -353.744
  H     -298.768     315.479    -362.966
  H     -299.110     314.809    -361.368
  H     -299.039     319.226    -353.108
  P     -299.602     323.220    -355.689
  C     -301.516     324.097    -357.229
  O     -300.598     323.059    -356.934
  O     -298.838     324.507    -355.585
  O     -300.467     322.849    -354.398
  H     -300.487     321.877    -354.246
  H     -302.128     323.784    -358.076
  H     -300.978     325.012    -357.498
  H     -302.159     324.291    -356.366
  H     -302.722     315.195    -355.824
  H     -302.602     316.786    -355.111
  H     -302.618     315.369    -354.088

 3  4  5  6  7  8  9  10  11  12  22  25  29  30  31  32 0
 6-311+G(2d,p)
 ****
 33  36  37 0
 6-311+G(2d,p)
 ****
 1  2  13  14  15  16  17  18  19  20  21  23  24  26 0
 3-21G
 ****
 27  28  34  35  38  39  40  41  42  43  44  45  46  47  48 0
 3-21G
 ****


