%nproc=1
%NoSave
%Mem=1900MB
#P OB98/GEN NMR

erre ene a

0 1
  C     -491.837    1290.904    -150.143
  O     -492.126    1292.261    -149.820
  P     -493.605    1292.658    -149.379
  C     -493.504    1293.296    -146.873
  O     -493.522    1293.772    -148.230
  C     -492.284    1293.828    -146.125
  O     -491.056    1293.298    -146.629
  C     -492.140    1295.354    -146.238
  O     -493.099    1296.017    -145.438
  C     -490.688    1295.552    -145.810
  O     -490.574    1295.574    -144.385
  C     -490.014    1294.269    -146.385
  N     -489.240    1294.521    -147.604
  C     -488.023    1295.193    -147.418
  O     -487.693    1295.582    -146.286
  N     -487.244    1295.452    -148.506
  C     -487.626    1295.053    -149.683
  N     -486.807    1295.326    -150.744
  C     -488.909    1294.359    -149.930
  C     -489.656    1294.137    -148.859
  O     -494.525    1291.502    -149.068
  O     -494.153    1293.498    -150.640
  H     -489.616    1295.621    -144.197
  H     -495.105    1293.380    -150.695
  H     -489.182    1294.043    -150.926
  H     -490.604    1293.618    -148.928
  H     -489.337    1293.846    -145.648
  H     -490.277    1296.495    -146.208
  H     -492.266    1295.659    -147.299
  H     -492.390    1293.554    -145.064
  H     -485.932    1295.813    -150.560
  H     -493.475    1292.204    -146.881
  H     -486.999    1295.017    -151.690
  H     -494.438    1293.573    -146.375
  P     -493.616    1297.452    -145.942
  C     -496.151    1297.166    -145.580
  O     -494.969    1297.803    -145.156
  O     -494.117    1297.165    -147.444
  O     -492.577    1298.538    -145.922
  H     -493.935    1297.952    -148.004
  H     -496.902    1297.245    -144.775
  H     -495.995    1296.107    -145.802
  H     -496.544    1297.682    -146.463
  H     -490.806    1290.814    -150.416
  H     -492.451    1290.594    -150.962
  H     -492.036    1290.285    -149.293

 3  4  5  6  7  8  9  10  11  12  13  23  27  28  29  30  32 0
 6-311+G(2d,p)
 ****
 34  35 0
 6-311+G(2d,p)
 ****
 1  2  14  15  16  17  18  19  20  21  22  24  25  26 0
 3-21G
 ****
 31  33  36  37  38  39  40  41  42  43  44  45  46 0
 3-21G
 ****


