%nproc=1
%NoSave
%Mem=1900MB
#P OB98/GEN NMR

erre ene a

0 1
  C      -25.465    -102.949      85.245
  O      -24.547    -102.230      84.446
  H      -24.910    -103.663      85.860
  H      -26.169    -103.504      84.618
  H      -26.011    -102.269      85.905
  P      -25.119    -101.170      83.390
  C      -24.852    -102.925      81.507
  O      -25.727    -102.024      82.178
  C      -25.595    -103.674      80.403
  O      -26.688    -104.431      80.959
  C      -26.214    -102.770      79.343
  O      -25.219    -102.271      78.471
  C      -27.217    -103.723      78.714
  O      -26.569    -104.627      77.806
  C      -27.736    -104.481      79.961
  N      -28.984    -103.941      80.493
  C      -30.139    -104.218      79.751
  O      -30.066    -104.868      78.707
  N      -31.341    -103.731      80.207
  C      -31.395    -103.070      81.321
  N      -32.616    -102.621      81.718
  C      -30.207    -102.786      82.148
  C      -29.046    -103.237      81.675
  O      -24.179    -100.081      82.970
  O      -26.424    -100.578      84.106
  H      -26.224    -104.077      77.074
  H      -26.207     -99.757      84.588
  H      -30.299    -102.240      83.075
  H      -28.123    -103.071      82.224
  H      -27.897    -105.542      79.725
  H      -27.988    -103.199      78.148
  H      -26.767    -101.950      79.818
  H      -24.895    -104.391      79.951
  H      -33.405    -102.857      81.126
  H      -24.479    -103.631      82.258
  H      -32.801    -102.241      82.636
  H      -23.994    -102.388      81.086
  P      -25.445    -100.929      77.619
  C      -26.500    -102.301      75.717
  O      -26.680    -101.237      76.639
  O      -24.227    -100.394      76.947
  O      -26.088     -99.915      78.677
  H      -25.389     -99.556      79.279
  H      -27.383    -102.411      75.122
  H      -26.315    -103.209      76.252
  H      -25.667    -102.085      75.082

 6  7  8  9  10  11  12  13  14  15  16  26  30  31  32  33  35 0
 6-311+G(2d,p)
 ****
 37  38 0
 6-311+G(2d,p)
 ****
 1  2  3  4  5  17  18  19  20  21  22  23  24  25 0
 3-21G
 ****
 27  28  29  34  36  39  40  41  42  43  44  45  46 0
 3-21G
 ****


