%nproc=1
%NoSave
%Mem=1900MB
#P OB98/GEN NMR

erre ene a

0 1
  C     -432.063    -461.777     829.449
  O     -432.388    -462.417     830.665
  H     -432.912    -461.864     828.765
  H     -431.201    -462.273     828.996
  H     -431.846    -460.718     829.608
  P     -431.472    -462.081     831.937
  C     -433.307    -461.058     833.460
  O     -432.150    -460.825     832.674
  C     -434.498    -460.273     832.905
  O     -434.850    -460.823     831.602
  C     -435.753    -460.322     833.786
  O     -436.416    -459.053     833.727
  C     -436.623    -461.344     833.083
  O     -438.001    -461.188     833.388
  C     -436.271    -461.057     831.625
  N     -440.143    -462.923     829.032
  C     -439.984    -461.700     829.652
  N     -441.045    -460.860     829.638
  N     -438.880    -461.326     830.250
  C     -437.892    -462.257     830.177
  C     -437.922    -463.502     829.597
  C     -439.157    -463.907     828.954
  O     -439.366    -464.986     828.407
  N     -436.739    -464.164     829.791
  C     -435.998    -463.328     830.503
  N     -436.660    -462.158     830.765
  O     -430.156    -461.466     831.267
  O     -431.156    -463.243     832.818
  H     -438.345    -460.419     832.888
  H     -429.484    -462.164     831.156
  H     -441.015    -463.165     828.604
  H     -435.004    -463.523     830.868
  H     -436.772    -460.159     831.248
  H     -436.315    -462.359     833.367
  H     -441.914    -461.062     829.176
  H     -435.550    -460.579     834.835
  H     -440.929    -459.945     830.054
  H     -434.183    -459.231     832.736
  H     -433.115    -460.730     834.487
  H     -433.530    -462.129     833.467
  P     -435.794    -457.836     834.566
  C     -435.038    -455.983     832.901
  O     -434.672    -457.116     833.677
  O     -434.943    -458.579     835.702
  O     -436.823    -456.926     835.162
  H     -434.972    -458.061     836.527
  H     -434.182    -455.623     832.370
  H     -435.408    -455.213     833.546
  H     -435.800    -456.260     832.203

 6  7  8  9  10  11  12  13  14  15  26  29  33  34 0
 6-311+G(2d,p)
 ****
 36  38  39  40  41 0
 6-311+G(2d,p)
 ****
 1  2  3  4  5  16  17  18  19  20  21  22  23  24  25 0
 3-21G
 ****
 27  28  30  31  32  35  37  42  43  44  45  46  47 0
 3-21G
 ****
 48  49 0
 3-21G
 ****


