%nproc=1
%NoSave
%Mem=1900MB
#P OB98/GEN NMR

erre ene a

0 1
  C      -25.023    -148.859    -328.657
  O      -24.569    -149.640    -327.568
  H      -25.956    -149.292    -329.032
  H      -24.289    -148.852    -329.467
  H      -25.223    -147.835    -328.326
  P      -23.089    -149.363    -327.008
  C      -22.728    -151.848    -326.398
  O      -22.825    -150.510    -325.912
  C      -22.285    -152.803    -325.287
  O      -20.904    -152.568    -324.953
  C      -23.048    -152.623    -323.985
  O      -24.399    -153.026    -324.045
  C      -22.115    -153.266    -322.968
  O      -22.295    -154.675    -322.845
  C      -20.724    -152.966    -323.577
  N      -19.995    -151.963    -322.811
  C      -19.016    -152.448    -321.954
  O      -18.771    -153.648    -321.811
  N      -18.344    -151.509    -321.221
  C      -18.588    -150.168    -321.228
  O      -17.979    -149.380    -320.513
  C      -19.654    -149.714    -322.135
  C      -20.301    -150.618    -322.875
  O      -22.834    -147.975    -326.503
  O      -22.138    -149.793    -328.218
  H      -22.293    -155.043    -323.749
  H      -21.228    -149.427    -328.102
  H      -17.624    -151.845    -320.600
  H      -19.879    -148.655    -322.163
  H      -21.092    -150.309    -323.551
  H      -20.117    -153.880    -323.596
  H      -22.253    -152.840    -321.973
  H      -23.068    -151.552    -323.747
  H      -22.376    -153.831    -325.660
  H      -21.982    -151.857    -327.200
  H      -23.693    -152.161    -326.811
  P      -25.581    -152.071    -324.536
  C      -26.658    -152.074    -322.172
  O      -26.844    -152.293    -323.565
  O      -25.816    -151.993    -326.011
  O      -25.038    -150.627    -324.060
  H      -25.334    -149.971    -324.720
  H      -27.577    -152.259    -321.656
  H      -26.354    -151.061    -322.008
  H      -25.903    -152.737    -321.804

 6  7  8  9  10  11  12  13  14  15  16  26  31  32  33  34  35 0
 6-311+G(2d,p)
 ****
 36  37 0
 6-311+G(2d,p)
 ****
 1  2  3  4  5  17  18  19  20  21  22  23  24  25 0
 3-21G
 ****
 27  28  29  30  38  39  40  41  42  43  44  45 0
 3-21G
 ****


