%nproc=1
%NoSave
%Mem=1900MB
#P OB98/GEN NMR

erre ene a

0 1
  C       42.430    -274.883      29.688
  O       41.939    -276.206      29.464
  P       40.363    -276.510      29.497
  C       40.272    -277.437      27.112
  O       40.041    -277.721      28.487
  C       40.653    -278.675      26.292
  O       42.043    -279.029      26.497
  C       39.820    -279.926      26.588
  O       39.719    -280.633      25.349
  C       40.705    -280.675      27.570
  O       40.365    -282.052      27.677
  C       42.095    -280.380      26.993
  N       43.156    -280.557      27.980
  C       43.447    -281.863      28.370
  O       42.783    -282.805      27.930
  N       44.450    -282.075      29.287
  C       45.038    -281.058      29.835
  N       46.006    -281.329      30.753
  C       44.702    -279.657      29.520
  C       43.769    -279.483      28.584
  O       39.492    -275.309      29.320
  O       40.129    -277.167      30.942
  H       40.662    -282.507      26.860
  H       39.226    -276.954      31.249
  H       45.203    -278.841      30.022
  H       43.457    -278.493      28.277
  H       42.306    -281.037      26.139
  H       40.608    -280.231      28.569
  H       38.832    -279.703      26.995
  H       40.552    -278.406      25.232
  H       46.186    -282.303      30.962
  H       41.078    -276.699      27.041
  H       46.444    -280.620      31.322
  H       39.374    -276.973      26.690
  P       38.366    -281.350      24.890
  C       38.863    -280.797      22.442
  O       38.579    -281.824      23.375
  O       37.122    -280.554      25.123
  O       38.330    -282.732      25.707
  H       37.424    -283.085      25.698
  H       39.197    -281.251      21.507
  H       39.653    -280.138      22.819
  H       37.961    -280.213      22.251
  H       43.498    -274.884      29.626
  H       42.129    -274.551      30.660
  H       42.030    -274.224      28.946

 3  4  5  6  7  8  9  10  11  12  13  23  27  28  29  30  32 0
 6-311+G(2d,p)
 ****
 34  35 0
 6-311+G(2d,p)
 ****
 1  2  14  15  16  17  18  19  20  21  22  24  25  26 0
 3-21G
 ****
 31  33  36  37  38  39  40  41  42  43  44  45  46 0
 3-21G
 ****


