%nproc=1
%NoSave
%Mem=1900MB
#P OB98/GEN NMR

erre ene a

0 1
  C       95.229    -228.745    -633.807
  O       96.193    -229.686    -634.232
  H       94.892    -228.987    -632.793
  H       95.686    -227.744    -633.800
  H       94.377    -228.736    -634.493
  P       95.712    -231.217    -634.286
  C       96.695    -232.006    -632.019
  O       95.524    -231.697    -632.762
  C       96.667    -233.460    -631.577
  O       95.546    -233.632    -630.656
  C       96.512    -234.478    -632.721
  O       97.501    -235.507    -632.625
  C       95.141    -235.095    -632.492
  O       95.087    -236.464    -632.861
  C       94.925    -234.892    -630.989
  N       90.906    -237.885    -630.018
  C       92.237    -238.130    -629.971
  N       93.263    -237.263    -630.145
  C       92.803    -236.021    -630.358
  C       91.473    -235.610    -630.407
  C       90.501    -236.605    -630.251
  N       89.149    -236.371    -630.346
  N       91.385    -234.250    -630.649
  C       92.643    -233.854    -630.795
  N       93.527    -234.889    -630.636
  O       97.031    -231.998    -634.769
  O       94.558    -231.476    -635.202
  H       94.165    -236.763    -632.711
  H       96.844    -232.440    -635.625
  H       92.521    -239.162    -629.771
  H       92.955    -232.845    -631.046
  H       95.436    -235.674    -630.398
  H       94.394    -234.541    -633.074
  H       96.575    -234.009    -633.707
  H       97.581    -233.675    -630.998
  H       96.750    -231.349    -631.135
  H       88.526    -237.162    -630.336
  H       88.833    -235.442    -630.626
  H       97.582    -231.818    -632.653
  P       98.751    -235.394    -633.633
  C       97.767    -237.132    -635.314
  O       98.236    -235.797    -635.104
  O       99.689    -236.616    -633.194
  O       99.479    -234.086    -633.550
  H      100.582    -236.292    -632.970
  H       97.461    -237.246    -636.333
  H       96.935    -237.324    -634.668
  H       98.553    -237.825    -635.098

 6  7  8  9  10  11  12  13  14  15  25  28  32  33  34  35 0
 6-311+G(2d,p)
 ****
 36  39  40 0
 6-311+G(2d,p)
 ****
 1  2  3  4  5  16  17  18  19  20  21  22  23  24 0
 3-21G
 ****
 26  27  29  30  31  37  38  41  42  43  44  45  46  47  48 0
 3-21G
 ****


