%nproc=1
%NoSave
%Mem=1900MB
#P OB98/GEN NMR

erre ene a

0 1
  C     -121.939     457.484    -133.831
  O     -122.148     456.422    -134.742
  H     -121.217     457.190    -133.066
  H     -121.541     458.346    -134.378
  H     -122.885     457.772    -133.362
  P     -122.741     455.058    -134.142
  C     -124.184     454.894    -136.300
  O     -124.152     454.837    -134.876
  C     -125.474     455.572    -136.752
  O     -125.463     456.967    -136.365
  C     -125.689     455.565    -138.260
  O     -126.217     454.334    -138.722
  C     -126.700     456.690    -138.405
  O     -128.004     456.223    -138.011
  C     -126.172     457.717    -137.391
  N     -125.802     461.659    -140.634
  C     -126.845     460.875    -140.283
  N     -126.856     459.842    -139.416
  C     -125.639     459.647    -138.886
  C     -124.480     460.358    -139.155
  C     -124.593     461.420    -140.074
  N     -123.528     462.213    -140.447
  N     -123.416     459.842    -138.446
  C     -123.929     458.858    -137.737
  N     -125.266     458.696    -137.978
  O     -123.170     455.459    -132.649
  O     -121.826     453.882    -134.176
  H     -127.912     455.875    -137.103
  H     -123.237     454.658    -132.095
  H     -127.792     461.106    -140.765
  H     -123.377     458.238    -137.043
  H     -126.978     458.274    -136.898
  H     -126.784     457.062    -139.426
  H     -124.770     455.836    -138.802
  H     -126.314     455.089    -136.236
  H     -124.151     453.877    -136.700
  H     -123.673     462.813    -141.242
  H     -122.604     461.942    -140.149
  H     -123.311     455.452    -136.654
  P     -125.192     453.290    -139.378
  C     -125.625     451.056    -138.112
  O     -124.833     452.238    -138.223
  O     -123.852     454.145    -139.535
  O     -125.647     452.698    -140.674
  H     -123.298     453.797    -140.262
  H     -125.264     450.459    -137.300
  H     -125.561     450.497    -139.022
  H     -126.644     451.326    -137.930

 6  7  8  9  10  11  12  13  14  15  25  28  32  33  34  35 0
 6-311+G(2d,p)
 ****
 36  39  40 0
 6-311+G(2d,p)
 ****
 1  2  3  4  5  16  17  18  19  20  21  22  23  24 0
 3-21G
 ****
 26  27  29  30  31  37  38  41  42  43  44  45  46  47 0
 3-21G
 ****
 48 0
 3-21G
 ****


