%nproc=1
%NoSave
%Mem=1900MB
#P OB98/GEN NMR

erre ene a

0 1
  C      471.634    -245.975     -62.611
  O      471.207    -245.202     -63.713
  H      470.771    -246.502     -62.199
  H      472.060    -245.337     -61.833
  H      472.375    -246.715     -62.930
  P      472.270    -244.239     -64.428
  C      474.035    -244.825     -66.223
  O      472.686    -244.954     -65.800
  C      474.193    -245.269     -67.684
  O      473.630    -246.603     -67.834
  C      473.475    -244.356     -68.691
  O      474.215    -244.406     -69.917
  C      472.143    -245.061     -68.838
  O      471.432    -244.596     -69.958
  C      472.604    -246.521     -68.848
  N      471.518    -247.456     -68.601
  C      470.868    -247.962     -69.729
  O      471.216    -247.609     -70.856
  N      469.824    -248.832     -69.555
  C      469.418    -249.119     -68.358
  N      468.368    -249.978     -68.254
  C      470.037    -248.559     -67.139
  C      471.075    -247.747     -67.331
  O      473.416    -243.795     -63.580
  O      471.393    -242.993     -64.920
  H      470.503    -244.915     -69.941
  H      471.554    -242.227     -64.339
  H      469.647    -248.813     -66.164
  H      471.594    -247.283     -66.497
  H      473.072    -246.778     -69.809
  H      471.509    -244.874     -67.967
  H      473.389    -243.323     -68.345
  H      475.264    -245.349     -67.913
  H      467.968    -250.329     -69.117
  H      474.647    -245.459     -65.574
  H      467.954    -250.256     -67.377
  H      474.367    -243.789     -66.116
  P      474.838    -243.103     -70.613
  C      475.325    -241.322     -68.810
  O      475.848    -242.390     -69.595
  O      473.816    -242.181     -71.201
  O      475.802    -243.667     -71.761
  H      475.826    -243.030     -72.500
  H      476.095    -240.935     -68.176
  H      474.517    -241.684     -68.209
  H      474.970    -240.546     -69.455

 6  7  8  9  10  11  12  13  14  15  16  26  30  31  32  33  35 0
 6-311+G(2d,p)
 ****
 37  38 0
 6-311+G(2d,p)
 ****
 1  2  3  4  5  17  18  19  20  21  22  23  24  25 0
 3-21G
 ****
 27  28  29  34  36  39  40  41  42  43  44  45  46 0
 3-21G
 ****


