%nproc=1
%NoSave
%Mem=1900MB
#P OB98/GEN NMR

erre ene a

0 1
  C       99.610     869.177     223.772
  O      100.607     870.171     223.644
  H       99.321     869.102     224.824
  H       99.991     868.208     223.442
  H       98.724     869.449     223.187
  P      101.196     870.468     222.185
  C      103.051     868.675     222.042
  O      102.746     870.050     222.242
  C      104.448     868.530     221.453
  O      104.448     868.885     220.056
  C      105.496     869.419     222.128
  O      105.951     868.823     223.335
  C      106.566     869.460     221.046
  O      107.302     868.219     221.042
  C      105.706     869.571     219.772
  N      107.634     874.165     218.843
  C      108.254     873.024     219.310
  N      109.564     873.137     219.614
  N      107.642     871.887     219.483
  C      106.314     871.939     219.206
  C      105.586     873.020     218.751
  C      106.289     874.260     218.507
  O      105.784     875.295     218.074
  N      104.258     872.714     218.644
  C      104.182     871.449     218.991
  N      105.403     870.932     219.360
  O      100.968     871.852     221.643
  O      100.546     869.341     221.262
  H      107.789     868.185     220.197
  H       99.720     869.655     220.850
  H      108.160     875.017     218.751
  H      103.272     870.851     218.997
  H      106.165     869.067     218.915
  H      107.283     870.266     221.178
  H      110.002     874.037     219.768
  H      105.128     870.437     222.283
  H      110.026     872.324     220.009
  H      104.735     867.475     221.522
  H      102.303     868.271     221.351
  H      102.990     868.132     222.989
  P      106.065     869.680     224.690
  C      108.553     870.312     224.402
  O      107.603     869.555     225.135
  O      105.075     869.315     225.746
  O      105.964     871.201     224.208
  H      105.036     871.541     224.159
  H      109.531     870.138     224.799
  H      108.317     871.353     224.480
  H      108.528     870.016     223.374

 6  7  8  9  10  11  12  13  14  15  26  29  33  34 0
 6-311+G(2d,p)
 ****
 36  38  39  40  41 0
 6-311+G(2d,p)
 ****
 1  2  3  4  5  16  17  18  19  20  21  22  23  24  25 0
 3-21G
 ****
 27  28  30  31  32  35  37  42  43  44  45  46  47 0
 3-21G
 ****
 48  49 0
 3-21G
 ****


