%nproc=1
%NoSave
%Mem=1900MB
#P OB98/GEN NMR

erre ene a

0 1
  C       51.097     -41.812       1.131
  O       50.588     -42.563       0.046
  H       50.262     -41.318       1.636
  H       51.792     -41.045       0.777
  H       51.599     -42.468       1.846
  P       51.624     -43.323      -0.909
  C       51.668     -41.426      -2.668
  O       52.409     -42.185      -1.719
  C       52.463     -41.257      -3.961
  O       53.492     -40.262      -3.790
  C       53.181     -42.521      -4.420
  O       52.266     -43.437      -4.987
  C       54.197     -41.930      -5.385
  O       53.586     -41.615      -6.646
  C       54.604     -40.635      -4.636
  N       55.827     -40.777      -3.854
  C       56.893     -39.947      -4.222
  O       56.774     -39.168      -5.168
  N       58.069     -40.042      -3.519
  C       58.162     -40.854      -2.513
  N       59.351     -40.896      -1.855
  C       57.051     -41.719      -2.071
  C       55.930     -41.638      -2.785
  O       51.057     -44.413      -1.765
  O       52.737     -43.883       0.097
  H       53.399     -42.473      -7.077
  H       52.532     -44.801       0.358
  H       57.168     -42.374      -1.220
  H       55.065     -42.242      -2.526
  H       54.750     -39.812      -5.348
  H       55.021     -42.613      -5.589
  H       53.724     -42.975      -3.583
  H       51.776     -40.891      -4.735
  H       60.077     -40.268      -2.184
  H       51.472     -40.448      -2.216
  H       59.484     -41.362      -0.970
  H       50.705     -41.906      -2.879
  P       52.417     -45.018      -4.770
  C       53.862     -44.950      -6.896
  O       53.743     -45.442      -5.569
  O       51.204     -45.823      -5.094
  O       52.879     -45.147      -3.243
  H       52.106     -45.020      -2.638
  H       54.780     -45.296      -7.324
  H       53.857     -43.880      -6.882
  H       53.040     -45.303      -7.482

 6  7  8  9  10  11  12  13  14  15  16  26  30  31  32  33  35 0
 6-311+G(2d,p)
 ****
 37  38 0
 6-311+G(2d,p)
 ****
 1  2  3  4  5  17  18  19  20  21  22  23  24  25 0
 3-21G
 ****
 27  28  29  34  36  39  40  41  42  43  44  45  46 0
 3-21G
 ****


