%nproc=1
%NoSave
%Mem=1900MB
#P OB98/GEN NMR

erre ene a

0 1
  C     1843.128    -205.932     -21.488
  O     1843.753    -205.787     -22.790
  P     1844.577    -207.042     -23.401
  C     1843.422    -206.562     -25.674
  O     1843.809    -207.579     -24.734
  C     1842.762    -207.223     -26.907
  O     1843.732    -208.147     -27.594
  C     1841.522    -208.072     -26.559
  O     1840.559    -208.014     -27.604
  C     1842.102    -209.488     -26.511
  O     1841.049    -210.447     -26.661
  C     1843.099    -209.407     -27.658
  N     1845.451    -213.282     -30.120
  C     1844.570    -212.338     -30.554
  N     1844.008    -211.321     -29.829
  C     1844.487    -211.322     -28.575
  C     1845.410    -212.179     -27.996
  C     1845.914    -213.204     -28.832
  N     1846.815    -214.138     -28.400
  N     1845.642    -211.843     -26.646
  C     1844.813    -210.830     -26.422
  N     1844.090    -210.466     -27.597
  O     1844.923    -208.115     -22.442
  O     1845.903    -206.355     -24.034
  H     1840.609    -210.300     -27.487
  H     1846.650    -206.883     -23.757
  H     1844.235    -212.417     -31.575
  H     1844.718    -210.389     -25.467
  H     1842.615    -209.486     -28.642
  H     1842.622    -209.641     -25.573
  H     1841.034    -207.790     -25.622
  H     1842.514    -206.442     -27.632
  H     1844.308    -205.991     -26.008
  H     1847.044    -214.883     -29.001
  H     1847.076    -214.223     -27.427
  H     1842.751    -205.845     -25.193
  P     1839.103    -207.443     -27.216
  C     1839.288    -205.716     -29.220
  O     1838.985    -205.984     -27.782
  O     1838.791    -207.615     -25.737
  O     1838.150    -208.345     -28.155
  H     1838.382    -208.343     -29.083
  H     1839.085    -204.669     -29.379
  H     1838.721    -206.379     -29.780
  H     1840.388    -205.881     -29.323
  H     1842.627    -205.022     -21.229
  H     1843.877    -206.148     -20.755
  H     1842.419    -206.733     -21.520

 3  4  5  6  7  8  9  10  11  12  22  25  29  30  31  32 0
 6-311+G(2d,p)
 ****
 33  36  37 0
 6-311+G(2d,p)
 ****
 1  2  13  14  15  16  17  18  19  20  21  23  24  26 0
 3-21G
 ****
 27  28  34  35  38  39  40  41  42  43  44  45  46  47  48 0
 3-21G
 ****


