%nproc=1
%NoSave
%Mem=1900MB
#P OB98/GEN NMR

erre ene a

0 1
  C       26.027     -14.216     -61.886
  O       26.550     -12.944     -61.543
  P       26.897     -11.931     -62.740
  C       28.864     -11.808     -64.484
  O       28.213     -12.518     -63.441
  C       30.310     -12.293     -64.629
  O       31.081     -11.892     -63.475
  C       30.466     -13.806     -64.715
  O       30.125     -14.299     -66.001
  C       31.934     -13.973     -64.339
  O       32.774     -13.695     -65.472
  C       32.112     -12.881     -63.264
  N       32.072     -13.404     -61.898
  C       33.304     -13.597     -61.279
  O       34.378     -13.350     -61.824
  N       33.258     -14.107     -60.008
  C       32.134     -14.493     -59.336
  O       32.152     -14.984     -58.215
  C       30.864     -14.294     -60.055
  C       30.892     -13.768     -61.282
  O       27.408     -10.661     -61.911
  O       25.740     -11.674     -63.644
  H       27.781     -10.918     -61.048
  H       33.669     -13.525     -65.117
  H       34.137     -14.234     -59.528
  H       29.952     -14.598     -59.558
  H       29.968     -13.624     -61.830
  H       33.068     -12.361     -63.407
  H       32.169     -14.988     -63.996
  H       29.837     -14.290     -63.957
  H       30.745     -11.811     -65.513
  H       28.856     -10.742     -64.247
  H       28.313     -11.964     -65.417
  P       29.425     -15.750     -66.052
  C       30.183     -18.130     -65.283
  O       30.541     -16.801     -65.591
  O       29.294     -15.975     -67.632
  O       28.131     -15.818     -65.307
  H       30.087     -15.697     -68.121
  H       31.076     -18.758     -65.345
  H       29.433     -18.514     -65.980
  H       29.790     -18.175     -64.264
  H       25.845     -14.779     -60.994
  H       26.731     -14.738     -62.500
  H       25.110     -14.092     -62.423

 3  4  5  6  7  8  9  10  11  12  13  24  28  29  30  31  32 0
 6-311+G(2d,p)
 ****
 33  34 0
 6-311+G(2d,p)
 ****
 1  2  14  15  16  17  18  19  20  21  22  23  25  26  27 0
 3-21G
 ****
 35  36  37  38  39  40  41  42  43  44  45 0
 3-21G
 ****


