%nproc=1
%NoSave
%Mem=1900MB
#P OB98/GEN NMR

erre ene a

0 1
  C      171.209     508.761     268.699
  O      169.907     508.190     268.534
  P      168.944     507.880     269.784
  C      167.809     510.173     269.458
  O      168.407     509.265     270.382
  C      166.860     511.154     270.157
  O      165.661     510.484     270.594
  C      167.449     511.818     271.402
  O      168.324     512.870     271.039
  C      166.177     512.254     272.129
  O      165.681     513.482     271.575
  C      165.217     511.106     271.821
  N      163.576     510.181     276.577
  C      163.453     511.261     275.767
  N      163.924     511.430     274.515
  C      164.557     510.323     274.099
  C      164.772     509.153     274.816
  C      164.249     509.110     276.117
  N      164.390     508.015     276.939
  N      165.495     508.250     274.064
  C      165.700     508.861     272.908
  N      165.157     510.113     272.883
  O      169.534     506.955     270.799
  O      167.625     507.232     269.129
  H      165.278     513.273     270.711
  H      167.208     506.626     269.772
  H      162.895     512.099     276.186
  H      166.233     508.427     272.069
  H      164.204     511.456     271.643
  H      166.343     512.425     273.197
  H      167.979     511.080     272.006
  H      166.566     511.910     269.420
  H      167.244     509.588     268.725
  H      164.006     508.072     277.872
  H      164.926     507.227     276.623
  H      168.599     510.719     268.943
  P      169.861     512.563     270.719
  C      169.717     512.679     268.157
  O      169.909     511.840     269.284
  O      170.618     511.869     271.803
  O      170.478     514.007     270.402
  H      171.428     514.007     270.650
  H      168.646     512.871     268.027
  H      170.100     512.160     267.272
  H      170.248     513.627     268.277
  H      171.670     508.880     267.741
  H      171.808     508.114     269.305
  H      171.122     509.716     269.174

 3  4  5  6  7  8  9  10  11  12  22  25  29  30  31  32 0
 6-311+G(2d,p)
 ****
 33  36  37 0
 6-311+G(2d,p)
 ****
 1  2  13  14  15  16  17  18  19  20  21  23  24  26 0
 3-21G
 ****
 27  28  34  35  38  39  40  41  42  43  44  45  46  47  48 0
 3-21G
 ****


