%nproc=1
%NoSave
%Mem=1900MB
#P OB98/GEN NMR

erre ene a

0 1
  C      829.256    -312.224    -747.702
  O      828.241    -313.141    -747.322
  P      826.851    -313.163    -748.104
  C      826.459    -315.646    -748.763
  O      826.188    -314.605    -747.858
  C      825.811    -316.974    -748.294
  O      826.574    -317.454    -747.151
  C      824.386    -316.838    -747.800
  O      823.784    -318.135    -747.794
  C      824.572    -316.373    -746.368
  O      823.426    -316.604    -745.557
  C      825.869    -317.131    -745.944
  N      826.710    -316.310    -745.050
  C      826.112    -315.854    -743.875
  O      824.974    -316.166    -743.530
  N      826.850    -314.952    -743.136
  C      828.073    -314.458    -743.503
  O      828.568    -313.442    -743.016
  C      828.744    -315.145    -744.614
  C      828.022    -316.013    -745.342
  O      827.298    -313.214    -749.645
  O      825.951    -312.005    -747.836
  H      823.371    -317.585    -745.420
  H      827.304    -312.314    -750.026
  H      826.361    -314.519    -742.373
  H      829.771    -314.895    -744.830
  H      828.479    -316.500    -746.211
  H      825.616    -318.071    -745.416
  H      824.767    -315.281    -746.376
  H      823.767    -316.139    -748.367
  H      825.885    -317.715    -749.091
  H      827.546    -315.759    -748.866
  H      826.073    -315.401    -749.754
  P      822.382    -318.322    -748.565
  C      823.168    -320.671    -749.210
  O      822.125    -319.905    -748.653
  O      822.224    -317.575    -749.834
  O      821.310    -317.862    -747.451
  H      820.470    -317.658    -747.882
  H      823.150    -321.688    -748.773
  H      824.149    -320.242    -749.005
  H      823.033    -320.756    -750.290
  H      830.109    -312.354    -747.070
  H      828.888    -311.224    -747.603
  H      829.535    -312.402    -748.719

 3  4  5  6  7  8  9  10  11  12  13  23  28  29  30  31  32 0
 6-311+G(2d,p)
 ****
 33  34 0
 6-311+G(2d,p)
 ****
 1  2  14  15  16  17  18  19  20  21  22  24  25  26  27 0
 3-21G
 ****
 35  36  37  38  39  40  41  42  43  44  45 0
 3-21G
 ****


