%nproc=1
%NoSave
%Mem=1900MB
#P OB98/GEN NMR

erre ene a

0 1
  C      133.155     152.563      -3.384
  O      132.261     152.296      -4.468
  P      132.638     152.970      -5.877
  C      130.929     154.863      -5.415
  O      132.258     154.528      -5.796
  C      130.261     155.773      -6.451
  O      130.905     157.081      -6.491
  C      130.299     155.215      -7.878
  O      129.084     155.624      -8.520
  C      131.463     155.964      -8.500
  O      131.413     155.923      -9.925
  C      131.258     157.340      -7.867
  N      133.478     160.988     -10.560
  C      132.330     160.262     -10.820
  N      131.647     160.594     -11.936
  N      131.891     159.300     -10.051
  C      132.656     159.107      -8.948
  C      133.803     159.768      -8.573
  C      134.295     160.808      -9.449
  O      135.301     161.484      -9.264
  N      134.278     159.306      -7.366
  C      133.450     158.322      -7.058
  N      132.423     158.200      -7.952
  O      131.548     152.358      -6.875
  O      134.031     152.678      -6.327
  H      132.102     156.534     -10.262
  H      131.939     151.630      -7.393
  H      133.780     161.706     -11.196
  H      133.533     157.690      -6.190
  H      130.432     157.893      -8.337
  H      132.413     155.523      -8.177
  H      131.902     161.358     -12.546
  H      130.412     154.129      -7.938
  H      130.780     160.106     -12.128
  H      129.219     155.931      -6.145
  H      130.935     155.370      -4.446
  H      130.357     153.940      -5.271
  P      128.051     154.484      -8.964
  C      128.788     154.164     -11.425
  O      128.753     153.627     -10.118
  O      126.919     155.306      -9.747
  O      127.461     153.705      -7.836
  H      126.040     154.931      -9.541
  H      129.645     153.746     -11.956
  H      128.879     155.255     -11.415
  H      127.874     153.885     -11.955
  H      132.806     152.066      -2.503
  H      133.196     153.617      -3.207
  H      134.133     152.205      -3.631

 3  4  5  6  7  8  9  10  11  12  23  26  30  31 0
 6-311+G(2d,p)
 ****
 33  35  36  37  38 0
 6-311+G(2d,p)
 ****
 1  2  13  14  15  16  17  18  19  20  21  22  24  25 0
 3-21G
 ****
 27  28  29  32  34  39  40  41  42  43  44  45  46  47  48  49 0
 3-21G
 ****


