%nproc=1
%NoSave
%Mem=1900MB
#P OB98/GEN NMR

erre ene a

0 1
  C      528.490    -362.711    -695.384
  O      528.696    -364.071    -695.753
  H      527.421    -362.519    -695.344
  H      528.940    -362.054    -696.141
  H      528.928    -362.513    -694.405
  P      530.219    -364.584    -695.784
  C      529.983    -366.168    -693.740
  O      530.590    -365.000    -694.277
  C      529.999    -366.141    -692.206
  O      529.375    -364.892    -691.759
  C      529.237    -367.305    -691.542
  O      529.919    -367.652    -690.340
  C      527.901    -366.657    -691.168
  O      527.236    -367.373    -690.125
  C      528.380    -365.255    -690.782
  N      524.424    -363.726    -688.064
  C      525.374    -364.697    -687.797
  N      525.250    -365.373    -686.629
  N      526.356    -364.996    -688.613
  C      526.375    -364.219    -689.728
  C      525.500    -363.230    -690.102
  C      524.395    -362.937    -689.211
  O      523.525    -362.094    -689.395
  N      525.848    -362.708    -691.331
  C      526.924    -363.372    -691.678
  N      527.295    -364.301    -690.730
  O      531.046    -363.231    -696.017
  O      530.519    -365.612    -696.826
  H      526.983    -368.242    -690.482
  H      531.217    -363.098    -696.979
  H      523.685    -363.568    -687.404
  H      527.494    -363.210    -692.602
  H      528.849    -365.230    -689.791
  H      527.229    -366.619    -692.042
  H      524.547    -365.170    -685.948
  H      529.121    -368.189    -692.177
  H      525.961    -366.063    -686.413
  H      531.039    -366.105    -691.884
  H      530.551    -367.045    -694.081
  H      528.951    -366.240    -694.110
  P      531.207    -368.611    -690.454
  C      532.809    -366.906    -689.316
  O      532.521    -367.700    -690.459
  O      531.122    -369.139    -691.968
  O      531.219    -369.753    -689.469
  H      531.535    -370.011    -692.036
  H      533.715    -366.361    -689.479
  H      532.923    -367.539    -688.461
  H      532.006    -366.220    -689.147

 6  7  8  9  10  11  12  13  14  15  26  29  33  34 0
 6-311+G(2d,p)
 ****
 36  38  39  40  41 0
 6-311+G(2d,p)
 ****
 1  2  3  4  5  16  17  18  19  20  21  22  23  24  25 0
 3-21G
 ****
 27  28  30  31  32  35  37  42  43  44  45  46  47 0
 3-21G
 ****
 48  49 0
 3-21G
 ****


