%nproc=1
%NoSave
%Mem=1900MB
#P OB98/GEN NMR

erre ene a

0 1
  C       88.075      74.756    -694.154
  O       87.577      75.642    -695.135
  H       87.771      75.116    -693.167
  H       89.169      74.734    -694.191
  H       87.679      73.749    -694.294
  P       87.709      75.243    -696.682
  C       89.695      76.864    -696.987
  O       89.233      75.523    -697.102
  C       90.940      77.059    -697.846
  O       91.338      78.445    -697.846
  C       92.161      76.272    -697.359
  O       92.050      74.900    -697.688
  C       93.277      77.023    -698.082
  O       93.387      76.587    -699.446
  C       92.773      78.484    -698.002
  N       93.403      79.251    -696.923
  C       94.727      79.624    -697.117
  O       95.377      79.307    -698.109
  N       95.292      80.361    -696.106
  C       94.702      80.681    -694.921
  O       95.260      81.301    -694.025
  C       93.309      80.233    -694.756
  C       92.728      79.547    -695.744
  O       86.685      75.827    -697.603
  O       87.636      73.640    -696.661
  H       94.179      77.019    -699.822
  H       86.738      73.353    -696.912
  H       96.255      80.634    -696.221
  H       92.802      80.464    -693.828
  H       91.715      79.201    -695.646
  H       92.976      79.008    -698.950
  H       94.255      76.859    -697.626
  H       92.290      76.411    -696.278
  H       90.689      76.774    -698.880
  H       89.945      77.066    -695.941
  H       88.898      77.542    -697.305
  P       92.565      73.773    -696.675
  C       94.626      73.204    -698.088
  O       94.162      73.674    -696.829
  O       91.841      72.469    -696.760
  O       92.369      74.443    -695.230
  H       91.607      74.042    -694.781
  H       95.696      73.176    -698.086
  H       94.288      73.862    -698.861
  H       94.244      72.220    -698.264

 6  7  8  9  10  11  12  13  14  15  16  26  31  32  33  34  35 0
 6-311+G(2d,p)
 ****
 36  37 0
 6-311+G(2d,p)
 ****
 1  2  3  4  5  17  18  19  20  21  22  23  24  25 0
 3-21G
 ****
 27  28  29  30  38  39  40  41  42  43  44  45 0
 3-21G
 ****


