%nproc=1
%NoSave
%Mem=1900MB
#P OB98/GEN NMR

erre ene a

0 1
  C      -56.356     167.492     -55.604
  O      -56.110     166.251     -56.233
  H      -55.459     168.115     -55.634
  H      -57.158     168.007     -56.140
  H      -56.667     167.337     -54.568
  P      -54.933     165.350     -55.620
  C      -56.877     164.284     -54.276
  O      -55.510     164.673     -54.281
  C      -57.118     163.239     -53.189
  O      -56.659     161.953     -53.682
  C      -56.401     163.523     -51.857
  O      -57.350     163.596     -50.789
  C      -55.520     162.303     -51.635
  O      -55.494     161.868     -50.275
  C      -56.133     161.251     -52.550
  N      -55.510     156.452     -54.154
  C      -56.585     157.272     -54.180
  N      -56.658     158.574     -53.836
  C      -55.452     159.030     -53.453
  C      -54.265     158.325     -53.394
  C      -54.324     156.967     -53.751
  N      -53.241     156.119     -53.671
  N      -53.236     159.130     -52.941
  C      -53.805     160.292     -52.689
  N      -55.148     160.275     -52.965
  O      -53.889     166.435     -55.070
  O      -54.294     164.406     -56.580
  H      -55.151     162.614     -49.748
  H      -52.990     166.204     -55.368
  H      -57.512     156.819     -54.518
  H      -53.311     161.158     -52.268
  H      -56.963     160.717     -52.067
  H      -54.494     162.545     -51.938
  H      -55.800     164.440     -51.887
  H      -58.199     163.155     -53.026
  H      -57.139     163.851     -55.249
  H      -53.400     155.137     -53.831
  H      -52.384     156.467     -53.266
  H      -57.499     165.169     -54.109
  P      -56.959     164.535     -49.542
  C      -59.355     165.524     -49.282
  O      -57.979     165.776     -49.539
  O      -55.578     165.194     -50.009
  O      -56.822     163.799     -48.250
  H      -55.041     165.434     -49.229
  H      -59.898     166.445     -49.315
  H      -59.462     165.081     -48.314
  H      -59.740     164.856     -50.024

 6  7  8  9  10  11  12  13  14  15  25  28  32  33  34  35 0
 6-311+G(2d,p)
 ****
 36  39  40 0
 6-311+G(2d,p)
 ****
 1  2  3  4  5  16  17  18  19  20  21  22  23  24 0
 3-21G
 ****
 26  27  29  30  31  37  38  41  42  43  44  45  46  47  48 0
 3-21G
 ****


