%nproc=1
%NoSave
%Mem=1900MB
#P OB98/GEN NMR

erre ene a

0 1
  C      -61.562     -92.461     -99.896
  O      -60.864     -92.128    -101.086
  P      -61.136     -93.027    -102.387
  C      -58.903     -94.271    -101.992
  O      -60.306     -94.387    -102.182
  C      -58.188     -94.087    -103.325
  O      -56.835     -93.618    -103.072
  C      -58.082     -95.368    -104.167
  O      -58.375     -95.059    -105.537
  C      -56.609     -95.729    -104.082
  O      -56.181     -96.497    -105.201
  C      -55.987     -94.336    -103.991
  N      -51.337     -92.728    -105.123
  C      -52.553     -92.357    -105.660
  N      -52.516     -91.474    -106.682
  N      -53.703     -92.811    -105.238
  C      -53.590     -93.664    -104.189
  C      -52.445     -94.100    -103.565
  C      -51.176     -93.634    -104.083
  O      -50.061     -93.994    -103.710
  N      -52.734     -94.948    -102.527
  C      -54.050     -95.029    -102.525
  N      -54.613     -94.306    -103.546
  O      -60.324     -92.254    -103.529
  O      -62.568     -93.192    -102.759
  H      -55.245     -96.727    -105.049
  H      -60.924     -92.032    -104.267
  H      -50.479     -92.360    -105.498
  H      -54.632     -95.621    -101.830
  H      -56.034     -93.831    -104.964
  H      -56.434     -96.311    -103.170
  H      -51.668     -91.058    -107.033
  H      -58.728     -96.184    -103.828
  H      -53.399     -91.173    -107.075
  H      -58.699     -93.296    -103.889
  H      -58.530     -95.179    -101.507
  H      -58.704     -93.416    -101.338
  P      -59.420     -96.032    -106.271
  C      -57.588     -97.281    -107.638
  O      -58.596     -97.351    -106.647
  O      -59.663     -95.318    -107.681
  O      -60.686     -96.244    -105.510
  H      -60.530     -95.575    -108.049
  H      -57.373     -96.250    -107.934
  H      -57.914     -97.840    -108.518
  H      -56.674     -97.734    -107.246
  H      -61.284     -91.782     -99.117
  H      -61.313     -93.460     -99.604
  H      -62.616     -92.392    -100.069

 3  4  5  6  7  8  9  10  11  12  23  26  30  31  33  0
 6-311+G(2d,p)
 ****
 35  36  37  38 0
 6-311+G(2d,p)
 ****
 1  2  13  14  15  16  17  18  19  20  21  22  24  25  27  28  29 0
 3-21G
 ****
 32  34  39  40  41  42  43  44  45  46  47  48  49 0
 3-21G
 ****


