%nproc=1
%NoSave
%Mem=1900MB
#P OB98/GEN NMR

erre ene a

0 1
  C     1461.856     125.764    -634.443
  O     1462.727     124.683    -634.700
  H     1462.046     126.561    -635.170
  H     1462.032     126.163    -633.435
  H     1460.811     125.440    -634.535
  P     1462.624     123.422    -633.716
  C     1465.077     123.034    -634.475
  O     1464.130     122.966    -633.412
  C     1466.490     123.162    -633.909
  O     1466.686     124.473    -633.332
  C     1466.846     122.165    -632.833
  O     1467.251     120.921    -633.396
  C     1467.978     122.873    -632.113
  O     1469.230     122.717    -632.819
  C     1467.516     124.340    -632.148
  N     1467.122     127.884    -628.582
  C     1467.977     127.802    -629.659
  N     1468.894     128.783    -629.775
  N     1467.929     126.830    -630.544
  C     1466.986     125.911    -630.275
  C     1466.076     125.881    -629.238
  C     1466.107     126.975    -628.289
  O     1465.338     127.132    -627.340
  N     1465.266     124.779    -629.312
  C     1465.711     124.121    -630.365
  N     1466.768     124.748    -630.978
  O     1462.072     122.251    -634.666
  O     1461.741     123.616    -632.524
  H     1469.489     121.776    -632.794
  H     1461.536     121.637    -634.138
  H     1467.187     128.656    -627.939
  H     1465.301     123.175    -630.728
  H     1468.354     125.035    -632.261
  H     1468.141     122.476    -631.107
  H     1469.178     129.343    -628.987
  H     1466.012     122.024    -632.136
  H     1469.528     128.721    -630.564
  H     1467.184     123.078    -634.767
  H     1464.846     123.891    -635.095
  H     1464.994     122.113    -635.074
  P     1466.547     119.588    -632.839
  C     1468.153     118.269    -634.411
  O     1467.594     118.387    -633.111
  O     1465.388     119.301    -633.893
  O     1466.032     119.696    -631.435
  H     1464.738     118.679    -633.520
  H     1468.822     117.434    -634.437
  H     1468.689     119.163    -634.651
  H     1467.369     118.120    -635.124

 6  7  8  9  10  11  12  13  14  15  26  29  33  34 0
 6-311+G(2d,p)
 ****
 36  38  39  40  41 0
 6-311+G(2d,p)
 ****
 1  2  3  4  5  16  17  18  19  20  21  22  23  24  25 0
 3-21G
 ****
 27  28  30  31  32  35  37  42  43  44  45  46  47 0
 3-21G
 ****
 48  49 0
 3-21G
 ****


