%nproc=1
%NoSave
%Mem=1900MB
#P OB98/GEN NMR

erre ene a

0 1
  C       34.217      40.202     280.350
  O       34.518      40.670     279.035
  P       36.013      40.533     278.475
  C       36.807      42.797     279.426
  O       36.998      41.390     279.409
  C       38.160      43.533     279.505
  O       38.816      43.227     280.762
  C       39.116      43.148     278.363
  O       39.658      44.282     277.680
  C       40.124      42.235     279.042
  O       41.368      42.179     278.357
  C       40.152      42.770     280.480
  N       40.606      41.754     281.433
  C       41.961      41.439     281.407
  O       42.746      41.907     280.584
  N       42.375      40.505     282.326
  C       41.572      39.823     283.187
  O       41.985      38.961     283.958
  C       40.139      40.153     283.127
  C       39.731      41.091     282.265
  O       36.182      40.761     277.009
  O       36.402      39.023     278.865
  H       41.911      41.469     278.759
  H       36.928      38.652     278.124
  H       43.355      40.276     282.327
  H       39.467      39.613     283.781
  H       38.681      41.346     282.190
  H       40.836      43.626     280.566
  H       39.718      41.217     279.055
  H       38.598      42.590     277.575
  H       37.943      44.608     279.475
  H       36.209      43.073     280.294
  H       36.236      43.099     278.545
  P       39.000      44.965     276.395
  C       40.653      44.053     274.612
  O       39.329      44.055     275.114
  O       39.274      46.420     276.216
  O       37.429      44.724     276.620
  H       36.941      45.525     276.352
  H       40.625      43.712     273.571
  H       41.265      43.367     275.197
  H       41.091      45.056     274.641
  H       33.181      40.370     280.560
  H       34.816      40.730     281.062
  H       34.428      39.155     280.413

 3  4  5  6  7  8  9  10  11  12  13  23  28  29  30  31  32 0
 6-311+G(2d,p)
 ****
 33  34 0
 6-311+G(2d,p)
 ****
 1  2  14  15  16  17  18  19  20  21  22  24  25  26  27 0
 3-21G
 ****
 35  36  37  38  39  40  41  42  43  44  45 0
 3-21G
 ****


