%nproc=1
%NoSave
%Mem=1900MB
#P OB98/GEN NMR

erre ene a

0 1
  C      -69.400     -78.196    -313.552
  O      -68.469     -79.243    -313.355
  H      -69.147     -77.672    -314.479
  H      -69.355     -77.482    -312.727
  H      -70.414     -78.598    -313.641
  P      -68.623     -80.163    -312.054
  C      -67.856     -82.484    -312.888
  O      -67.501     -81.301    -312.182
  C      -66.602     -83.255    -313.282
  O      -66.063     -82.742    -314.518
  C      -65.473     -83.169    -312.253
  O      -65.692     -84.089    -311.199
  C      -64.276     -83.532    -313.127
  O      -64.256     -84.953    -313.349
  C      -64.611     -82.792    -314.435
  N      -60.788     -79.850    -316.006
  C      -60.927     -81.223    -316.049
  N      -59.878     -81.917    -316.545
  N      -61.988     -81.864    -315.628
  C      -62.924     -81.045    -315.094
  C      -62.897     -79.677    -314.975
  C      -61.741     -78.974    -315.499
  O      -61.583     -77.760    -315.493
  N      -64.002     -79.198    -314.317
  C      -64.718     -80.280    -314.070
  N      -64.099     -81.431    -314.508
  O      -69.998     -80.697    -311.777
  O      -68.083     -79.242    -310.862
  H      -63.626     -85.109    -314.080
  H      -68.811     -78.743    -310.442
  H      -59.937     -79.423    -316.330
  H      -65.685     -80.289    -313.583
  H      -64.251     -83.325    -315.318
  H      -63.323     -83.258    -312.684
  H      -58.952     -81.510    -316.616
  H      -65.332     -82.138    -311.889
  H      -59.942     -82.927    -316.545
  H      -66.889     -84.301    -313.465
  H      -68.413     -82.179    -313.780
  H      -68.499     -83.116    -312.273
  P      -65.116     -83.815    -309.724
  C      -67.178     -85.125    -308.875
  O      -65.762     -84.960    -308.810
  O      -65.320     -82.422    -309.222
  O      -63.583     -84.256    -309.806
  H      -62.973     -83.527    -310.091
  H      -67.475     -85.917    -308.220
  H      -67.463     -85.365    -309.878
  H      -67.657     -84.216    -308.576

 6  7  8  9  10  11  12  13  14  15  26  29  33  34 0
 6-311+G(2d,p)
 ****
 36  38  39  40  41 0
 6-311+G(2d,p)
 ****
 1  2  3  4  5  16  17  18  19  20  21  22  23  24  25 0
 3-21G
 ****
 27  28  30  31  32  35  37  42  43  44  45  46  47 0
 3-21G
 ****
 48  49 0
 3-21G
 ****


