%nproc=1
%NoSave
%Mem=1900MB
#P OB98/GEN NMR

erre ene a

0 1
  C       32.746     -60.983     163.429
  O       31.942     -60.049     164.121
  H       33.790     -60.816     163.705
  H       32.645     -60.854     162.347
  H       32.470     -62.003     163.709
  P       30.369     -60.011     163.798
  C       30.492     -58.593     161.632
  O       30.163     -58.621     163.013
  C       30.156     -57.226     161.038
  O       30.516     -57.165     159.641
  C       28.675     -56.856     161.073
  O       28.214     -56.496     162.367
  C       28.673     -55.680     160.106
  O       29.221     -54.521     160.758
  C       29.633     -56.198     159.003
  N       28.928     -56.814     157.879
  C       28.986     -56.135     156.655
  O       29.606     -55.076     156.557
  N       28.310     -56.652     155.577
  C       27.618     -57.743     155.711
  N       26.928     -58.187     154.625
  C       27.543     -58.501     156.977
  C       28.207     -57.981     158.009
  O       29.450     -60.233     164.956
  O       30.178     -61.077     162.618
  H       29.222     -53.800     160.104
  H       29.217     -61.100     162.390
  H       26.944     -59.398     157.039
  H       28.187     -58.474     158.979
  H       30.262     -55.388     158.625
  H       27.674     -55.416     159.752
  H       28.063     -57.659     160.649
  H       30.772     -56.479     161.559
  H       26.969     -57.620     153.788
  H       29.929     -59.388     161.131
  H       26.164     -58.848     154.719
  H       31.563     -58.773     161.496
  P       26.998     -57.337     162.991
  C       25.248     -56.392     161.305
  O       25.655     -56.522     162.656
  O       27.186     -57.126     164.563
  O       26.942     -58.782     162.604
  H       27.704     -57.857     164.958
  H       24.342     -55.825     161.259
  H       25.083     -57.363     160.887
  H       26.012     -55.890     160.749

 6  7  8  9  10  11  12  13  14  15  16  26  30  31  32  33  35 0
 6-311+G(2d,p)
 ****
 37  38 0
 6-311+G(2d,p)
 ****
 1  2  3  4  5  17  18  19  20  21  22  23  24  25 0
 3-21G
 ****
 27  28  29  34  36  39  40  41  42  43  44  45  46 0
 3-21G
 ****


