%nproc=1
%NoSave
%Mem=1900MB
#P OB98/GEN NMR

erre ene a

0 1
  C     -106.108     -39.018     -69.723
  O     -104.787     -39.089     -69.226
  H     -106.764     -38.674     -68.920
  H     -106.449     -40.002     -70.055
  H     -106.165     -38.304     -70.549
  P     -103.644     -39.683     -70.184
  C     -104.057     -42.099     -69.344
  O     -104.099     -41.204     -70.444
  C     -104.704     -43.430     -69.721
  O     -106.136     -43.297     -69.829
  C     -104.264     -43.998     -71.066
  O     -102.958     -44.547     -71.048
  C     -105.338     -45.055     -71.269
  O     -105.057     -46.193     -70.434
  C     -106.597     -44.303     -70.775
  N     -107.351     -43.678     -71.860
  C     -108.602     -44.234     -72.156
  O     -109.024     -45.199     -71.520
  N     -109.333     -43.705     -73.192
  C     -108.850     -42.722     -73.885
  N     -109.594     -42.266     -74.932
  C     -107.546     -42.095     -73.597
  C     -106.854     -42.619     -72.587
  O     -102.234     -39.508     -69.719
  O     -103.932     -39.014     -71.609
  H     -104.185     -46.535     -70.703
  H     -103.242     -39.342     -72.237
  H     -107.186     -41.283     -74.211
  H     -105.879     -42.223     -72.326
  H     -107.263     -44.979     -70.225
  H     -105.399     -45.416     -72.300
  H     -104.360     -43.247     -71.858
  H     -104.509     -44.135     -68.902
  H     -110.462     -42.747     -75.125
  H     -104.580     -41.633     -68.504
  H     -109.177     -41.711     -75.672
  H     -103.019     -42.291     -69.054
  P     -101.995     -44.239     -72.297
  C     -103.225     -46.167     -73.545
  O     -102.718     -44.843     -73.595
  O     -100.766     -45.231     -72.051
  O     -101.563     -42.814     -72.445
  H     -100.044     -44.785     -71.569
  H     -103.673     -46.413     -74.485
  H     -103.960     -46.239     -72.770
  H     -102.425     -46.848     -73.342

 6  7  8  9  10  11  12  13  14  15  16  26  30  31  32  33  35 0
 6-311+G(2d,p)
 ****
 37  38 0
 6-311+G(2d,p)
 ****
 1  2  3  4  5  17  18  19  20  21  22  23  24  25 0
 3-21G
 ****
 27  28  29  34  36  39  40  41  42  43  44  45  46 0
 3-21G
 ****


