%nproc=1
%NoSave
%Mem=1900MB
#P OB98/GEN NMR

erre ene a

0 1
  C      155.464     -26.650    -186.304
  O      155.151     -26.871    -187.681
  P      153.779     -27.648    -187.980
  C      152.070     -25.696    -187.938
  O      152.788     -26.632    -188.729
  C      150.574     -25.763    -188.247
  O      149.783     -25.028    -187.294
  C      150.214     -25.196    -189.613
  O      150.496     -26.149    -190.624
  C      148.725     -24.918    -189.451
  O      147.940     -26.103    -189.694
  C      148.619     -24.496    -187.977
  N      145.709     -20.372    -188.443
  C      145.513     -21.653    -188.923
  N      144.367     -21.873    -189.601
  N      146.364     -22.631    -188.749
  C      147.465     -22.268    -188.051
  C      147.758     -21.041    -187.502
  C      146.810     -19.968    -187.704
  O      146.927     -18.823    -187.280
  N      148.942     -21.072    -186.809
  C      149.419     -22.280    -187.049
  N      148.533     -23.066    -187.742
  O      153.131     -27.825    -186.528
  O      153.977     -28.963    -188.657
  H      147.981     -26.322    -190.642
  H      153.160     -28.764    -186.265
  H      145.025     -19.655    -188.614
  H      150.382     -22.641    -186.722
  H      147.737     -24.937    -187.496
  H      148.372     -24.166    -190.162
  H      143.666     -21.167    -189.769
  H      150.755     -24.259    -189.788
  H      144.200     -22.807    -189.954
  H      150.273     -26.818    -188.193
  H      152.441     -24.686    -188.125
  H      152.261     -25.909    -186.881
  P      151.478     -25.711    -191.812
  C      153.813     -25.780    -190.682
  O      152.892     -26.413    -191.548
  O      151.751     -24.163    -191.505
  O      150.916     -25.897    -193.182
  H      151.694     -23.651    -192.333
  H      154.430     -26.545    -190.203
  H      153.307     -25.196    -189.907
  H      154.459     -25.118    -191.265
  H      156.395     -26.127    -186.229
  H      155.542     -27.591    -185.800
  H      154.690     -26.066    -185.851

 3  4  5  6  7  8  9  10  11  12  23  26  30  31 0
 6-311+G(2d,p)
 ****
 33  35  36  37  38 0
 6-311+G(2d,p)
 ****
 1  2  13  14  15  16  17  18  19  20  21  22  24  25 0
 3-21G
 ****
 27  28  29  32  34  39  40  41  42  43  44  45  46  47  48  49 0
 3-21G
 ****


