%nproc=1
%NoSave
%Mem=1900MB
#P OB98/GEN NMR

erre ene a

0 1
  C     -328.023    -414.584     777.664
  O     -328.666    -415.297     778.714
  P     -329.758    -416.443     778.512
  C     -331.553    -415.762     780.314
  O     -330.531    -416.655     779.895
  C     -331.430    -415.445     781.816
  O     -331.221    -416.692     782.537
  C     -330.232    -414.536     782.135
  O     -330.527    -413.524     783.090
  C     -329.137    -415.524     782.480
  O     -328.072    -414.958     783.227
  C     -329.922    -416.642     783.173
  N     -326.569    -419.850     785.304
  C     -326.838    -418.529     785.622
  N     -326.114    -417.981     786.623
  N     -327.731    -417.805     784.994
  C     -328.324    -418.447     783.962
  C     -328.127    -419.741     783.541
  C     -327.175    -420.552     784.269
  O     -326.906    -421.731     784.046
  N     -328.920    -420.038     782.466
  C     -329.574    -418.928     782.221
  N     -329.258    -417.934     783.109
  O     -329.301    -417.666     777.798
  O     -330.881    -415.738     777.588
  H     -327.395    -415.644     783.354
  H     -331.265    -416.448     777.030
  H     -325.891    -420.366     785.830
  H     -330.305    -418.799     781.431
  H     -330.076    -416.431     784.229
  H     -328.710    -415.887     781.539
  H     -325.333    -418.441     787.059
  H     -329.938    -413.965     781.248
  H     -326.163    -416.966     786.696
  H     -332.371    -415.007     782.158
  H     -332.499    -416.267     780.115
  H     -331.529    -414.851     779.711
  P     -330.430    -411.938     782.933
  C     -330.039    -411.345     785.396
  O     -330.931    -411.258     784.299
  O     -331.591    -411.555     781.899
  O     -329.108    -411.438     782.445
  H     -331.192    -411.143     781.102
  H     -330.591    -411.084     786.313
  H     -329.227    -410.616     785.266
  H     -329.630    -412.346     785.493
  H     -327.339    -413.875     778.081
  H     -328.757    -414.070     777.080
  H     -327.489    -415.271     777.041

 3  4  5  6  7  8  9  10  11  12  23  26  30  31 0
 6-311+G(2d,p)
 ****
 33  35  36  37  38 0
 6-311+G(2d,p)
 ****
 1  2  13  14  15  16  17  18  19  20  21  22  24  25 0
 3-21G
 ****
 27  28  29  32  34  39  40  41  42  43  44  45  46  47  48  49 0
 3-21G
 ****


