%nproc=1
%NoSave
%Mem=1900MB
#P OB98/GEN NMR

erre ene a

0 1
  C      259.096    -294.565      36.087
  O      259.827    -294.685      37.312
  P      259.459    -293.634      38.475
  C      257.973    -295.148      39.980
  O      258.032    -294.059      39.070
  C      257.155    -294.776      41.216
  O      255.797    -294.460      40.861
  C      257.047    -295.886      42.252
  O      258.214    -295.969      43.055
  C      255.861    -295.405      43.076
  O      256.296    -294.433      44.042
  C      254.966    -294.744      42.014
  N      249.923    -295.214      41.797
  C      250.697    -294.194      42.317
  N      250.029    -293.135      42.828
  N      252.002    -294.208      42.334
  C      252.534    -295.315      41.763
  C      251.878    -296.393      41.216
  C      250.429    -296.377      41.232
  O      249.696    -297.268      40.813
  N      252.757    -297.322      40.725
  C      253.944    -296.795      40.947
  N      253.864    -295.584      41.588
  O      259.134    -292.296      37.656
  O      260.549    -293.432      39.473
  H      256.871    -294.901      44.681
  H      259.310    -291.514      38.214
  H      248.920    -295.154      41.816
  H      254.887    -297.246      40.661
  H      254.558    -293.790      42.362
  H      255.378    -296.214      43.634
  H      249.027    -293.023      42.780
  H      256.807    -296.843      41.779
  H      250.580    -292.362      43.181
  H      257.612    -293.884      41.671
  H      258.984    -295.431      40.286
  H      257.541    -296.015      39.470
  P      259.014    -297.359      43.043
  C      260.966    -296.539      41.542
  O      259.828    -297.372      41.666
  O      257.857    -298.443      42.821
  O      259.805    -297.629      44.278
  H      258.109    -299.295      43.224
  H      261.579    -296.572      42.447
  H      260.647    -295.509      41.351
  H      261.566    -296.887      40.697
  H      259.429    -295.313      35.398
  H      259.261    -293.595      35.667
  H      258.052    -294.697      36.280

 3  4  5  6  7  8  9  10  11  12  23  26  30  31  33  0
 6-311+G(2d,p)
 ****
 35  36  37  38 0
 6-311+G(2d,p)
 ****
 1  2  13  14  15  16  17  18  19  20  21  22  24  25  27  28  29 0
 3-21G
 ****
 32  34  39  40  41  42  43  44  45  46  47  48  49 0
 3-21G
 ****


