%nproc=1
%NoSave
%Mem=1900MB
#P OB98/GEN NMR

erre ene a

0 1
  C     -354.452    -114.309     -17.323
  O     -353.979    -115.625     -17.113
  P     -354.735    -116.879     -17.758
  C     -352.909    -117.594     -19.405
  O     -354.210    -117.037     -19.268
  C     -352.884    -118.691     -20.469
  O     -351.522    -119.174     -20.620
  C     -353.769    -119.907     -20.158
  O     -354.264    -120.388     -21.411
  C     -352.775    -120.905     -19.587
  O     -353.238    -122.247     -19.655
  C     -351.560    -120.607     -20.457
  N     -348.569    -124.664     -19.610
  C     -349.779    -124.548     -20.194
  N     -350.522    -123.435     -20.360
  C     -349.894    -122.364     -19.847
  C     -348.674    -122.334     -19.197
  C     -347.984    -123.556     -19.096
  N     -346.735    -123.686     -18.536
  N     -348.393    -121.051     -18.759
  C     -349.424    -120.329     -19.144
  N     -350.325    -121.066     -19.861
  O     -356.220    -116.870     -17.614
  O     -354.092    -118.141     -17.017
  H     -353.430    -122.461     -20.587
  H     -354.729    -118.508     -16.372
  H     -350.206    -125.467     -20.587
  H     -349.568    -119.279     -18.933
  H     -351.643    -121.059     -21.451
  H     -352.580    -120.668     -18.533
  H     -354.592    -119.694     -19.470
  H     -353.174    -118.242     -21.429
  H     -352.621    -118.022     -18.441
  H     -346.279    -124.579     -18.637
  H     -346.172    -122.853     -18.390
  H     -352.193    -116.804     -19.660
  P     -355.332    -121.584     -21.440
  C     -357.252    -119.993     -20.854
  O     -356.528    -121.149     -20.468
  O     -354.775    -122.946     -21.200
  O     -355.989    -121.460     -22.898
  H     -356.443    -122.296     -23.122
  H     -356.693    -119.102     -20.557
  H     -358.221    -119.996     -20.347
  H     -357.416    -119.975     -21.934
  H     -353.816    -113.616     -16.814
  H     -355.449    -114.223     -16.944
  H     -354.449    -114.092     -18.371

 3  4  5  6  7  8  9  10  11  12  22  25  29  30  31  32 0
 6-311+G(2d,p)
 ****
 33  36  37 0
 6-311+G(2d,p)
 ****
 1  2  13  14  15  16  17  18  19  20  21  23  24  26 0
 3-21G
 ****
 27  28  34  35  38  39  40  41  42  43  44  45  46  47  48 0
 3-21G
 ****


