%nproc=1
%NoSave
%Mem=1900MB
#P OB98/GEN NMR

erre ene a

0 1
  C      -22.248     -58.839      61.633
  O      -22.141     -58.300      60.327
  P      -20.705     -57.807      59.818
  C      -19.228     -55.696      60.169
  O      -20.358     -56.443      60.589
  C      -18.338     -55.355      61.366
  O      -17.782     -56.586      61.919
  C      -17.158     -54.433      61.025
  O      -16.919     -53.599      62.168
  C      -16.013     -55.414      60.863
  O      -14.735     -54.807      60.982
  C      -16.352     -56.412      61.975
  N      -15.647     -57.684      61.832
  C      -14.421     -57.811      62.476
  O      -13.902     -56.923      63.150
  N      -13.760     -58.992      62.271
  C      -14.149     -59.997      61.434
  O      -13.454     -60.979      61.205
  C      -15.453     -59.808      60.780
  C      -16.131     -58.680      61.005
  O      -20.991     -57.333      58.317
  O      -19.632     -58.841      59.883
  H      -14.748     -54.254      61.783
  H      -20.713     -58.021      57.684
  H      -12.875     -59.107      62.740
  H      -15.803     -60.595      60.125
  H      -17.086     -58.505      60.519
  H      -16.121     -55.977      62.956
  H      -16.073     -55.882      59.874
  H      -17.323     -53.821      60.134
  H      -18.962     -54.903      62.147
  H      -19.564     -54.771      59.698
  H      -18.667     -56.268      59.421
  P      -16.660     -52.034      61.914
  C      -14.826     -50.700      60.614
  O      -15.223     -51.913      61.219
  O      -16.407     -51.527      63.413
  O      -17.792     -51.340      61.231
  H      -15.837     -52.128      63.920
  H      -15.224     -49.834      61.150
  H      -15.179     -50.678      59.581
  H      -13.735     -50.645      60.616
  H      -23.263     -59.119      61.821
  H      -21.943     -58.104      62.348
  H      -21.619     -59.700      61.716

 3  4  5  6  7  8  9  10  11  12  13  23  28  29  30  31  32 0
 6-311+G(2d,p)
 ****
 33  34 0
 6-311+G(2d,p)
 ****
 1  2  14  15  16  17  18  19  20  21  22  24  25  26 0
 3-21G
 ****
 27  35  36  37  38  39  40  41  42  43  44  45 0
 3-21G
 ****


