%nproc=1
%NoSave
%Mem=1900MB
#P OB98/GEN NMR

erre ene a

0 1
  C      212.466    -109.288     -26.413
  O      211.128    -109.752     -26.501
  P      210.636    -110.359     -27.904
  C      212.080    -108.832     -29.443
  O      210.785    -109.188     -28.991
  C      211.990    -107.900     -30.654
  O      213.309    -107.358     -30.919
  C      211.508    -108.571     -31.945
  O      210.782    -107.581     -32.684
  C      212.802    -108.896     -32.667
  O      212.621    -109.077     -34.066
  C      213.650    -107.688     -32.284
  N      217.591    -108.016     -35.436
  C      216.252    -107.805     -35.712
  N      215.934    -107.593     -37.007
  N      215.314    -107.799     -34.802
  C      215.787    -108.009     -33.550
  C      217.078    -108.269     -33.156
  C      218.110    -108.235     -34.166
  O      219.317    -108.330     -33.957
  N      217.153    -108.519     -31.813
  C      215.922    -108.330     -31.382
  N      215.067    -107.975     -32.391
  O      209.056    -110.488     -27.700
  O      211.271    -111.652     -28.309
  H      212.122    -109.909     -34.200
  H      208.812    -111.383     -27.392
  H      218.270    -107.990     -36.177
  H      215.594    -108.430     -30.360
  H      213.440    -106.812     -32.910
  H      213.229    -109.821     -32.260
  H      216.609    -107.552     -37.754
  H      210.885    -109.453     -31.774
  H      214.965    -107.402     -37.232
  H      211.338    -107.059     -30.392
  H      212.613    -109.741     -29.741
  H      212.637    -108.357     -28.628
  P      209.371    -108.004     -33.318
  C      210.257    -107.019     -35.543
  O      209.165    -107.149     -34.653
  O      208.316    -107.355     -32.299
  O      209.154    -109.477     -33.438
  H      207.517    -107.911     -32.256
  H      209.873    -106.780     -36.538
  H      210.839    -107.944     -35.604
  H      210.904    -106.205     -35.208
  H      212.650    -108.914     -25.427
  H      212.620    -108.505     -27.126
  H      213.138    -110.095     -26.620

 3  4  5  6  7  8  9  10  11  12  23  26  30  31 0
 6-311+G(2d,p)
 ****
 33  35  36  37  38 0
 6-311+G(2d,p)
 ****
 1  2  13  14  15  16  17  18  19  20  21  22  24  25 0
 3-21G
 ****
 27  28  29  32  34  39  40  41  42  43  44  45  46  47  48  49 0
 3-21G
 ****


