%nproc=1
%NoSave
%Mem=1900MB
#P OB98/GEN NMR

erre ene a

0 1
  C      -23.901    -178.724    -149.365
  O      -22.952    -179.494    -150.085
  P      -21.456    -178.921    -150.195
  C      -20.491    -176.891    -151.515
  O      -21.433    -177.959    -151.481
  C      -19.733    -176.901    -152.834
  O      -18.853    -178.042    -152.915
  C      -20.624    -176.998    -154.067
  O      -21.177    -175.744    -154.434
  C      -19.624    -177.463    -155.114
  O      -18.855    -176.343    -155.592
  C      -18.735    -178.417    -154.307
  N      -17.447    -182.837    -156.414
  C      -16.720    -181.667    -156.296
  N      -15.500    -181.658    -156.877
  N      -17.149    -180.605    -155.666
  C      -18.390    -180.757    -155.144
  C      -19.206    -181.864    -155.191
  C      -18.724    -183.028    -155.902
  O      -19.341    -184.074    -156.083
  N      -20.389    -181.641    -154.538
  C      -20.291    -180.405    -154.093
  N      -19.117    -179.809    -154.471
  O      -20.609    -180.191    -150.674
  O      -20.918    -178.332    -148.936
  H      -18.341    -176.009    -154.829
  H      -19.656    -180.039    -150.515
  H      -17.076    -183.626    -156.916
  H      -21.052    -179.894    -153.509
  H      -17.678    -178.321    -154.582
  H      -20.103    -177.916    -155.987
  H      -15.142    -182.422    -157.432
  H      -21.398    -177.764    -153.938
  H      -14.973    -180.795    -156.865
  H      -19.115    -175.993    -152.875
  H      -19.791    -177.006    -150.685
  H      -21.023    -175.941    -151.386
  P      -22.741    -175.725    -154.801
  C      -24.120    -176.599    -156.822
  O      -22.840    -176.358    -156.270
  O      -23.037    -174.168    -155.027
  O      -23.628    -176.326    -153.762
  H      -23.978    -173.973    -154.852
  H      -24.011    -176.772    -157.897
  H      -24.786    -175.748    -156.671
  H      -24.555    -177.494    -156.369
  H      -24.847    -179.224    -149.374
  H      -24.001    -177.762    -149.823
  H      -23.571    -178.605    -148.354

 3  4  5  6  7  8  9  10  11  12  23  26  30  31 0
 6-311+G(2d,p)
 ****
 33  35  36  37  38 0
 6-311+G(2d,p)
 ****
 1  2  13  14  15  16  17  18  19  20  21  22  24  25 0
 3-21G
 ****
 27  28  29  32  34  39  40  41  42  43  44  45  46  47  48  49 0
 3-21G
 ****


