%nproc=1
%NoSave
%Mem=1900MB
#P OB98/GEN NMR

erre ene a

0 1
  C       68.510    -164.189    -196.889
  O       67.802    -163.241    -197.659
  H       68.808    -163.720    -195.947
  H       69.410    -164.510    -197.418
  H       67.883    -165.056    -196.663
  P       67.105    -163.719    -199.020
  C       67.557    -161.980    -200.868
  O       66.688    -162.395    -199.821
  C       66.839    -160.982    -201.773
  O       65.717    -161.620    -202.421
  C       66.254    -159.788    -201.030
  O       67.257    -158.862    -200.660
  C       65.251    -159.280    -202.052
  O       65.889    -158.465    -203.043
  C       64.732    -160.594    -202.677
  N       63.423    -160.974    -202.148
  C       62.420    -161.191    -203.086
  O       62.589    -161.088    -204.298
  N       61.179    -161.473    -202.577
  C       60.831    -161.419    -201.258
  O       59.667    -161.434    -200.868
  C       61.943    -161.248    -200.311
  C       63.168    -161.025    -200.792
  O       66.024    -164.738    -198.870
  O       68.327    -164.289    -199.887
  H       68.319    -165.264    -199.849
  H       66.460    -157.842    -202.548
  H       60.436    -161.589    -203.252
  H       61.717    -161.272    -199.252
  H       64.000    -160.861    -200.113
  H       64.653    -160.494    -203.767
  H       64.468    -158.682    -201.583
  H       65.712    -160.135    -200.142
  H       67.541    -160.653    -202.550
  H       67.846    -162.860    -201.454
  H       68.454    -161.533    -200.430
  P       67.626    -158.645    -199.117
  C       67.813    -156.098    -198.833
  O       68.523    -157.322    -198.995
  O       68.181    -159.844    -198.420
  O       66.241    -158.194    -198.448
  H       66.083    -158.742    -197.654
  H       68.509    -155.288    -198.763
  H       67.226    -156.142    -197.940
  H       67.171    -155.944    -199.675

 6  7  8  9  10  11  12  13  14  15  16  27  31  32  33  34  35 0
 6-311+G(2d,p)
 ****
 36  37 0
 6-311+G(2d,p)
 ****
 1  2  3  4  5  17  18  19  20  21  22  23  24  25 0
 3-21G
 ****
 26  28  29  30  38  39  40  41  42  43  44  45 0
 3-21G
 ****


