%nproc=1
%NoSave
%Mem=1900MB
#P OB98/GEN NMR

erre ene a

0 1
  C      368.992    -258.106     418.361
  O      367.606    -258.225     418.021
  P      366.903    -256.932     417.401
  C      364.948    -256.802     415.687
  O      365.424    -257.335     416.912
  C      363.777    -257.646     415.171
  O      364.100    -259.060     415.175
  C      362.512    -257.519     416.014
  O      361.864    -256.286     415.773
  C      361.741    -258.744     415.555
  O      361.095    -258.496     414.291
  C      362.861    -259.788     415.371
  N      363.093    -264.708     416.791
  C      362.946    -264.109     415.589
  N      362.889    -262.799     415.283
  C      363.017    -262.057     416.400
  C      363.171    -262.513     417.699
  C      363.200    -263.903     417.885
  N      363.338    -264.497     419.114
  N      363.268    -261.451     418.581
  C      363.142    -260.374     417.823
  N      363.002    -260.690     416.498
  O      367.698    -256.696     416.033
  O      366.957    -255.726     418.298
  H      360.643    -259.335     414.029
  H      368.277    -255.909     416.116
  H      362.858    -264.791     414.736
  H      363.143    -259.351     418.186
  H      362.707    -260.404     414.474
  H      360.960    -259.055     416.261
  H      362.761    -257.608     417.086
  H      363.569    -257.345     414.138
  H      365.746    -256.789     414.943
  H      363.270    -265.506     419.168
  H      363.336    -263.915     419.942
  H      364.642    -255.765     415.860
  P      361.402    -255.420     417.041
  C      362.200    -253.091     417.785
  O      361.882    -253.927     416.687
  O      362.462    -255.875     418.155
  O      359.968    -255.567     417.416
  H      363.373    -255.882     417.792
  H      362.541    -252.121     417.399
  H      363.002    -253.538     418.380
  H      361.312    -252.927     418.403
  H      369.341    -259.034     418.763
  H      369.115    -257.332     419.090
  H      369.555    -257.863     417.484

 3  4  5  6  7  8  9  10  11  12  22  25  29  30  31  32 0
 6-311+G(2d,p)
 ****
 33  36  37 0
 6-311+G(2d,p)
 ****
 1  2  13  14  15  16  17  18  19  20  21  23  24  26 0
 3-21G
 ****
 27  28  34  35  38  39  40  41  42  43  44  45  46  47  48 0
 3-21G
 ****


