%nproc=1
%NoSave
%Mem=1900MB
#P OB98/GEN NMR

erre ene a

0 1
  C      -77.503     404.529    -115.391
  O      -76.502     403.544    -115.555
  H      -77.709     404.984    -116.361
  H      -77.156     405.302    -114.700
  H      -78.423     404.074    -115.011
  P      -76.068     402.740    -114.236
  C      -76.596     400.309    -115.024
  O      -75.608     401.287    -114.735
  C      -76.063     399.288    -116.032
  O      -75.977     399.927    -117.341
  C      -74.656     398.764    -115.703
  O      -74.541     397.436    -116.235
  C      -73.778     399.712    -116.505
  O      -72.460     399.217    -116.607
  C      -74.606     399.800    -117.784
  N      -70.918     401.889    -120.643
  C      -70.984     400.717    -119.977
  N      -72.003     400.221    -119.245
  C      -73.049     401.066    -119.261
  C      -73.136     402.289    -119.905
  C      -72.002     402.701    -120.621
  N      -71.926     403.899    -121.297
  N      -74.372     402.870    -119.684
  C      -75.019     402.008    -118.923
  N      -74.260     400.910    -118.638
  O      -77.461     402.465    -113.497
  O      -75.093     403.438    -113.352
  H      -71.876     399.870    -117.045
  H      -77.622     403.157    -112.824
  H      -70.095     400.091    -120.037
  H      -76.028     402.136    -118.548
  H      -74.533     398.883    -118.382
  H      -73.709     400.688    -116.017
  H      -74.438     398.747    -114.631
  H      -76.784     398.467    -116.127
  H      -77.477     400.819    -115.439
  H      -76.884     399.796    -114.100
  H      -71.069     404.128    -121.773
  H      -72.719     404.524    -121.275
  P      -73.813     396.301    -115.356
  C      -75.561     395.776    -113.481
  O      -74.937     395.368    -114.689
  O      -73.287     397.139    -114.095
  O      -72.684     395.587    -116.027
  H      -72.493     396.711    -113.728
  H      -76.278     395.040    -113.183
  H      -76.055     396.713    -113.633
  H      -74.821     395.883    -112.716

 6  7  8  9  10  11  12  13  14  15  25  28  32  33  34  35 0
 6-311+G(2d,p)
 ****
 36  37  40 0
 6-311+G(2d,p)
 ****
 1  2  3  4  5  16  17  18  19  20  21  22  23  24 0
 3-21G
 ****
 26  27  29  30  31  38  39 41  42  43  44  45  46  47  48 0
 3-21G
 ****


