%nproc=1
%NoSave
%Mem=1900MB
#P OB98/GEN NMR

erre ene a

0 1
  C     -342.725      40.904     128.476
  O     -343.945      40.855     127.764
  H     -342.437      41.951     128.602
  H     -341.945      40.390     127.908
  H     -342.825      40.447     129.463
  P     -344.774      39.488     127.750
  C     -345.082      38.987     130.262
  O     -345.686      39.471     129.072
  C     -345.935      39.332     131.492
  O     -346.533      40.640     131.313
  C     -347.085      38.331     131.643
  O     -347.486      38.172     133.003
  C     -348.212      38.995     130.866
  O     -349.504      38.529     131.249
  C     -347.956      40.468     131.184
  N     -352.024      42.863     129.265
  C     -351.965      41.902     130.252
  N     -353.146      41.509     130.780
  N     -350.847      41.360     130.667
  C     -349.755      41.795     129.996
  C     -349.691      42.725     128.983
  C     -350.927      43.345     128.559
  O     -351.042      44.193     127.675
  N     -348.403      42.892     128.535
  C     -347.689      42.060     129.268
  N     -348.464      41.381     130.179
  O     -343.672      38.369     128.072
  O     -345.504      39.185     126.475
  H     -350.154      38.945     130.653
  H     -343.949      37.505     127.719
  H     -352.908      43.261     128.992
  H     -346.621      41.915     129.183
  H     -348.421      40.743     132.141
  H     -348.083      38.759     129.803
  H     -354.031      41.763     130.375
  H     -346.835      37.354     131.231
  H     -353.146      40.615     131.280
  H     -345.303      39.389     132.386
  H     -344.099      39.462     130.344
  H     -344.923      37.907     130.198
  P     -346.952      36.882     133.787
  C     -344.436      37.636     133.774
  O     -345.587      37.289     134.523
  O     -346.488      35.898     132.617
  O     -347.969      36.256     134.681
  H     -347.133      35.172     132.507
  H     -343.635      37.874     134.442
  H     -344.653      38.485     133.160
  H     -344.151      36.811     133.155

 6  7  8  9  10  11  12  13  14  15  26  29  33  34 0
 6-311+G(2d,p)
 ****
 36  38  39  40  41 0
 6-311+G(2d,p)
 ****
 1  2  3  4  5  16  17  18  19  20  21  22  23  24  25 0
 3-21G
 ****
 27  28  30  31  32  35  37  42  43  44  45  46  47 0
 3-21G
 ****
 48  49 0
 3-21G
 ****


