%nproc=1
%NoSave
%Mem=1900MB
#P OB98/GEN NMR

erre ene a

0 1
  C      382.308     272.709     557.932
  O      383.060     272.198     556.852
  H      382.890     273.497     558.416
  H      382.117     271.914     558.660
  H      381.363     273.132     557.590
  P      382.330     271.266     555.776
  C      383.461     269.196     556.830
  O      383.206     269.929     555.639
  C      384.218     267.900     556.519
  O      383.366     267.036     555.722
  C      385.477     268.168     555.686
  O      386.487     267.185     555.907
  C      384.971     268.042     554.257
  O      386.005     267.739     553.323
  C      383.928     266.936     554.402
  N      382.454     265.752     549.667
  C      383.707     265.670     550.241
  N      384.698     265.202     549.445
  N      383.973     266.028     551.465
  C      382.901     266.539     552.123
  C      381.617     266.695     551.662
  C      381.329     266.265     550.308
  O      380.244     266.337     549.747
  N      380.805     267.261     552.613
  C      381.600     267.451     553.645
  N      382.874     267.005     553.410
  O      382.612     272.006     554.383
  O      380.862     271.048     555.999
  H      385.597     267.697     552.439
  H      381.948     271.744     553.721
  H      382.301     265.436     548.729
  H      381.294     267.886     554.589
  H      384.401     265.949     554.319
  H      384.536     269.004     553.964
  H      384.577     265.109     548.446
  H      385.901     269.153     555.866
  H      385.658     265.424     549.731
  H      384.437     267.360     557.446
  H      382.492     268.979     557.283
  H      384.024     269.810     557.539
  P      387.515     267.406     557.116
  C      389.112     269.255     556.091
  O      388.910     267.937     556.550
  O      387.843     265.917     557.607
  O      386.992     268.260     558.228
  H      387.516     265.786     558.516
  H      390.124     269.367     555.763
  H      388.916     269.944     556.886
  H      388.449     269.454     555.275

 6  7  8  9  10  11  12  13  14  15  26  29  33  34 0
 6-311+G(2d,p)
 ****
 36  38  39  40  41 0
 6-311+G(2d,p)
 ****
 1  2  3  4  5  16  17  18  19  20  21  22  23  24  25 0
 3-21G
 ****
 27  28  30  31  32  35  37  42  43  44  45  46  47 0
 3-21G
 ****
 48  49 0
 3-21G
 ****


