%nproc=1
%NoSave
%Mem=1900MB
#P OB98/GEN NMR

erre ene a

0 1
  C      136.754    -156.683    -107.541
  O      136.253    -157.636    -108.463
  P      136.708    -157.518    -109.993
  C      136.515    -155.662    -111.803
  O      135.953    -156.257    -110.641
  C      136.133    -154.184    -111.900
  O      136.786    -153.442    -110.836
  C      136.539    -153.531    -113.225
  O      135.564    -152.539    -113.583
  C      137.825    -152.803    -112.882
  O      138.074    -151.729    -113.787
  C      137.529    -152.368    -111.445
  N      141.470    -149.236    -110.973
  C      140.292    -149.064    -111.673
  N      140.190    -147.940    -112.413
  N      139.299    -149.912    -111.642
  C      139.544    -150.995    -110.863
  C      140.664    -151.270    -110.111
  C      141.759    -150.328    -110.162
  O      142.842    -150.435    -109.591
  N      140.530    -152.449    -109.422
  C      139.352    -152.913    -109.790
  N      138.730    -152.084    -110.688
  O      135.988    -158.776    -110.678
  O      138.182    -157.564    -110.212
  H      138.824    -151.221    -113.421
  H      136.647    -159.473    -110.859
  H      142.211    -148.559    -111.038
  H      138.915    -153.845    -109.455
  H      136.896    -151.473    -111.419
  H      138.673    -153.495    -112.926
  H      140.945    -147.279    -112.534
  H      136.662    -154.232    -114.060
  H      139.356    -147.808    -112.970
  H      135.052    -154.092    -111.738
  H      136.147    -156.187    -112.685
  H      137.606    -155.769    -111.775
  P      135.419    -152.227    -115.151
  C      137.178    -151.546    -116.950
  O      136.798    -151.535    -115.588
  O      134.363    -151.025    -115.193
  O      134.988    -153.397    -115.973
  H      133.897    -151.014    -116.050
  H      137.218    -150.514    -117.311
  H      136.477    -152.109    -117.572
  H      138.167    -151.993    -117.039
  H      136.364    -156.890    -106.566
  H      136.454    -155.702    -107.844
  H      137.822    -156.738    -107.517

 3  4  5  6  7  8  9  10  11  12  23  26  30  31 0
 6-311+G(2d,p)
 ****
 33  35  36  37  38 0
 6-311+G(2d,p)
 ****
 1  2  13  14  15  16  17  18  19  20  21  22  24  25 0
 3-21G
 ****
 27  28  29  32  34  39  40  41  42  43  44  45  46  47  48  49 0
 3-21G
 ****


