%nproc=1
%NoSave
%Mem=1900MB
#P OB98/GEN NMR

erre ene a

0 1
  C      -74.727     102.740    -770.056
  O      -73.976     102.515    -768.884
  H      -74.720     103.811    -770.279
  H      -75.765     102.427    -769.903
  H      -74.300     102.206    -770.908
  P      -73.657     101.006    -768.445
  C      -75.181     101.303    -766.383
  O      -74.887     100.520    -767.537
  C      -74.278     100.883    -765.229
  O      -74.484     101.751    -764.092
  C      -74.529      99.463    -764.722
  O      -73.981      98.504    -765.605
  C      -73.864      99.535    -763.352
  O      -72.440      99.375    -763.464
  C      -74.230     100.969    -762.903
  N      -75.372     101.015    -761.989
  C      -75.106     101.407    -760.683
  O      -73.978     101.666    -760.273
  N      -76.190     101.462    -759.845
  C      -77.468     101.101    -760.156
  O      -78.395     101.120    -759.361
  C      -77.683     100.665    -761.546
  C      -76.648     100.639    -762.385
  O      -72.304     100.764    -767.854
  O      -73.865     100.170    -769.798
  H      -72.122     100.090    -764.046
  H      -72.997      99.982    -770.202
  H      -76.018     101.734    -758.886
  H      -78.685     100.360    -761.835
  H      -76.781     100.317    -763.405
  H      -73.372     101.440    -762.394
  H      -74.212      98.753    -762.675
  H      -75.607      99.301    -764.581
  H      -73.234     100.995    -765.558
  H      -76.226     101.135    -766.100
  H      -75.038     102.356    -766.625
  P      -74.571      97.017    -765.662
  C      -72.846      96.021    -764.052
  O      -74.224      96.298    -764.268
  O      -74.200      96.238    -766.881
  O      -76.159      97.234    -765.584
  H      -76.556      97.080    -766.459
  H      -72.723      95.545    -763.102
  H      -72.292      96.936    -764.067
  H      -72.487      95.374    -764.825

 6  7  8  9  10  11  12  13  14  15  16  26  31  32  33  34  35 0
 6-311+G(2d,p)
 ****
 36  37 0
 6-311+G(2d,p)
 ****
 1  2  3  4  5  17  18  19  20  21  22  23  24  25 0
 3-21G
 ****
 27  28  29  30  38  39  40  41  42  43  44  45 0
 3-21G
 ****


