%nproc=1
%NoSave
%Mem=1900MB
#P OB98/GEN NMR

erre ene a

0 1
  C      330.404     455.721     -28.261
  O      330.794     456.375     -27.067
  P      330.689     457.961     -26.929
  C      328.672     457.997     -25.241
  O      329.193     458.336     -26.510
  C      328.494     459.278     -24.419
  O      327.962     460.333     -25.248
  C      327.539     459.069     -23.253
  O      328.249     458.750     -22.064
  C      326.804     460.393     -23.177
  O      327.594     461.365     -22.465
  C      326.705     460.779     -24.671
  N      325.608     460.192     -25.469
  C      324.566     460.999     -25.904
  O      324.497     462.209     -25.692
  N      323.556     460.361     -26.587
  C      323.531     459.035     -26.902
  O      322.535     458.435     -27.291
  C      324.774     458.297     -26.658
  C      325.729     458.892     -25.943
  O      330.784     458.462     -28.447
  O      331.724     458.605     -26.057
  H      327.106     462.211     -22.502
  H      331.691     458.763     -28.652
  H      322.728     460.917     -26.784
  H      324.850     457.280     -27.020
  H      326.646     458.351     -25.717
  H      326.645     461.866     -24.800
  H      325.867     460.299     -22.630
  H      326.812     458.282     -23.490
  H      329.478     459.604     -24.050
  H      329.352     457.306     -24.732
  H      327.716     457.481     -25.356
  P      327.607     457.749     -21.001
  C      329.530     456.064     -21.186
  O      328.153     456.292     -21.403
  O      326.133     457.854     -20.823
  O      328.393     458.099     -19.647
  H      327.856     458.711     -19.098
  H      329.733     454.998     -21.326
  H      329.814     456.342     -20.170
  H      330.119     456.633     -21.917
  H      330.550     454.666     -28.154
  H      330.997     456.082     -29.075
  H      329.371     455.920     -28.456

 3  4  5  6  7  8  9  10  11  12  13  23  28  29  30  31  32 0
 6-311+G(2d,p)
 ****
 33  34 0
 6-311+G(2d,p)
 ****
 1  2  14  15  16  17  18  19  20  21  22  24  25  26  27 0
 3-21G
 ****
 35  36  37  38  39  40  41  42  43  44  45 0
 3-21G
 ****


