%nproc=1
%NoSave
%Mem=1900MB
#P OB98/GEN NMR

erre ene a

0 1
  C      317.754    -458.179     468.146
  O      318.226    -456.938     467.661
  H      318.119    -458.974     467.490
  H      316.659    -458.188     468.128
  H      318.114    -458.361     469.159
  P      317.945    -455.635     468.555
  C      319.371    -453.482     468.259
  O      318.416    -454.366     467.689
  C      320.273    -452.900     467.167
  O      321.088    -453.972     466.614
  C      319.502    -452.251     466.016
  O      320.212    -451.082     465.595
  C      319.549    -453.302     464.914
  O      319.416    -452.737     463.609
  C      320.902    -453.972     465.190
  N      320.944    -455.330     464.646
  C      320.795    -455.451     463.252
  O      320.637    -454.442     462.555
  N      320.782    -456.703     462.698
  C      320.812    -457.749     463.459
  N      320.767    -458.962     462.854
  C      320.899    -457.669     464.940
  C      320.966    -456.439     465.454
  O      319.059    -455.723     469.702
  O      316.562    -455.526     469.112
  H      318.552    -452.281     463.557
  H      318.738    -455.344     470.542
  H      320.896    -458.570     465.538
  H      321.024    -456.287     466.524
  H      321.721    -453.383     464.745
  H      318.733    -454.018     465.060
  H      318.478    -451.980     466.278
  H      320.963    -452.180     467.637
  H      320.689    -458.982     461.840
  H      319.989    -454.044     468.972
  H      320.738    -459.851     463.354
  H      318.848    -452.679     468.793
  P      319.609    -449.675     466.037
  C      320.577    -447.368     466.764
  O      320.793    -448.590     466.074
  O      319.250    -449.891     467.584
  O      318.402    -449.254     465.236
  H      318.278    -449.948     467.697
  H      321.455    -446.760     466.695
  H      320.364    -447.572     467.793
  H      319.750    -446.851     466.324

 6  7  8  9  10  11  12  13  14  15  16  26  30  31  32  33  35 0
 6-311+G(2d,p)
 ****
 37  38 0
 6-311+G(2d,p)
 ****
 1  2  3  4  5  17  18  19  20  21  22  23  24  25 0
 3-21G
 ****
 27  28  29  34  36  39  40  41  42  43  44  45  46 0
 3-21G
 ****


