%nproc=1
%NoSave
%Mem=1900MB
#P OB98/GEN NMR

erre ene a

0 1
  C      299.565     134.549     -35.774
  O      299.875     135.913     -35.970
  H      300.047     133.964     -36.562
  H      298.485     134.386     -35.828
  H      299.946     134.209     -34.806
  P      299.192     136.997     -35.008
  C      298.311     138.564     -36.868
  O      299.224     138.394     -35.794
  C      299.012     139.172     -38.089
  O      299.823     138.144     -38.726
  C      298.044     139.712     -39.153
  O      298.700     140.801     -39.816
  C      297.920     138.518     -40.080
  O      297.341     138.876     -41.309
  C      299.371     138.028     -40.092
  N      299.498     136.670     -40.597
  C      299.403     136.513     -41.981
  O      299.209     137.490     -42.705
  N      299.498     135.253     -42.512
  C      299.611     134.231     -41.722
  N      299.687     133.007     -42.309
  C      299.656     134.346     -40.249
  C      299.600     135.584     -39.759
  O      299.718     137.051     -33.614
  O      297.638     136.606     -35.030
  H      297.821     139.633     -41.716
  H      297.398     136.167     -34.193
  H      299.732     133.462     -39.635
  H      299.625     135.771     -38.690
  H      300.001     138.687     -40.704
  H      297.270     137.757     -39.638
  H      297.090     140.044     -38.735
  H      299.700     139.953     -37.746
  H      299.640     132.972     -43.321
  H      297.516     139.232     -36.522
  H      299.755     132.139     -41.798
  H      297.867     137.601     -37.141
  P      298.077     142.275     -39.897
  C      299.120     142.679     -42.223
  O      298.957     143.170     -40.894
  O      297.837     142.909     -38.564
  O      296.692     142.098     -40.684
  H      296.057     142.768     -40.368
  H      299.723     143.362     -42.784
  H      298.161     142.584     -42.688
  H      299.598     141.722     -42.194

 6  7  8  9  10  11  12  13  14  15  16  26  30  31  32  33  35 0
 6-311+G(2d,p)
 ****
 37  38 0
 6-311+G(2d,p)
 ****
 1  2  3  4  5  17  18  19  20  21  22  23  24  25 0
 3-21G
 ****
 27  28  29  34  36  39  40  41  42  43  44  45  46 0
 3-21G
 ****


