%nproc=1
%NoSave
%Mem=1900MB
#P OB98/GEN NMR

erre ene a

0 1
  C     1020.461    -571.427    -192.037
  O     1019.761    -572.152    -191.033
  P     1018.719    -571.419    -190.057
  C     1016.946    -572.250    -188.358
  O     1017.975    -572.618    -189.275
  C     1016.867    -573.290    -187.239
  O     1016.247    -574.489    -187.749
  C     1018.215    -573.720    -186.664
  O     1018.744    -572.728    -185.798
  C     1017.842    -575.043    -186.021
  O     1017.222    -574.822    -184.744
  C     1016.801    -575.618    -187.006
  N     1017.364    -576.612    -187.908
  C     1017.482    -577.912    -187.404
  O     1017.105    -578.188    -186.257
  N     1017.981    -578.896    -188.225
  C     1018.355    -578.607    -189.429
  N     1018.785    -579.621    -190.234
  C     1018.301    -577.225    -189.990
  C     1017.802    -576.297    -189.179
  O     1017.796    -570.452    -190.743
  O     1019.615    -570.764    -188.916
  H     1017.907    -574.454    -184.158
  H     1019.925    -569.854    -189.129
  H     1018.647    -577.039    -190.996
  H     1017.709    -575.281    -189.512
  H     1015.963    -576.062    -186.459
  H     1018.700    -575.718    -185.856
  H     1018.935    -573.906    -187.485
  H     1016.226    -572.892    -186.448
  H     1018.632    -580.568    -189.877
  H     1015.992    -572.218    -188.889
  H     1018.813    -579.524    -191.241
  H     1017.170    -571.257    -187.961
  P     1020.326    -572.536    -185.792
  C     1021.916    -570.478    -185.611
  O     1020.583    -570.950    -185.711
  O     1020.758    -572.933    -187.293
  O     1021.047    -573.348    -184.766
  H     1021.125    -573.835    -187.309
  H     1021.924    -569.414    -185.805
  H     1022.558    -570.975    -186.358
  H     1022.303    -570.664    -184.605
  H     1021.102    -572.093    -192.576
  H     1021.049    -570.659    -191.578
  H     1019.759    -570.984    -192.712

 3  4  5  6  7  8  9  10  11  12  13  23  27  28  29  30  32 0
 6-311+G(2d,p)
 ****
 34  35 0
 6-311+G(2d,p)
 ****
 1  2  14  15  16  17  18  19  20  21  22  24  25  26 0
 3-21G
 ****
 31  33  36  37  38  39  40  41  42  43  44  45  46 0
 3-21G
 ****


