%nproc=1
%NoSave
%Mem=1900MB
#P OB98/GEN NMR

erre ene a

0 1
  C       96.392     -33.080      -1.932
  O       95.253     -32.297      -1.626
  P       94.317     -31.750      -2.804
  C       92.903     -33.924      -3.024
  O       93.809     -33.027      -3.628
  C       91.506     -33.806      -3.648
  O       91.636     -34.035      -5.073
  C       90.494     -34.833      -3.152
  O       89.181     -34.369      -3.472
  C       90.829     -36.036      -4.005
  O       89.756     -36.973      -4.062
  C       91.218     -35.390      -5.359
  N       92.306     -36.132      -6.020
  C       92.013     -37.421      -6.457
  O       90.889     -37.914      -6.381
  N       93.076     -38.155      -6.907
  C       94.375     -37.741      -6.911
  O       95.333     -38.497      -7.021
  C       94.584     -36.305      -6.668
  C       93.558     -35.581      -6.214
  O       95.362     -31.049      -3.791
  O       93.246     -30.810      -2.370
  H       88.972     -36.486      -4.407
  H       95.398     -30.090      -3.617
  H       92.889     -39.134      -7.087
  H       95.578     -35.903      -6.808
  H       93.696     -34.530      -5.976
  H       90.364     -35.357      -6.047
  H       91.695     -36.552      -3.573
  H       90.568     -35.057      -2.084
  H       91.127     -32.788      -3.502
  H       92.863     -33.727      -1.949
  H       93.257     -34.955      -3.137
  P       87.972     -34.828      -2.524
  C       88.153     -32.487      -1.484
  O       88.021     -33.873      -1.237
  O       87.884     -36.289      -2.237
  O       86.678     -34.296      -3.308
  H       85.885     -34.767      -2.991
  H       87.674     -31.937      -0.670
  H       87.686     -32.201      -2.430
  H       89.215     -32.227      -1.511
  H       96.891     -33.353      -1.026
  H       97.058     -32.515      -2.550
  H       96.088     -33.964      -2.452

 3  4  5  6  7  8  9  10  11  12  13  23  28  29  30  31  32 0
 6-311+G(2d,p)
 ****
 33  34 0
 6-311+G(2d,p)
 ****
 1  2  14  15  16  17  18  19  20  21  22  24  25  26  27 0
 3-21G
 ****
 35  36  37  38  39  40  41  42  43  44  45 0
 3-21G
 ****


