%nproc=1
%NoSave
%Mem=1900MB
#P OB98/GEN NMR

erre ene a

0 1
  C      804.654    -549.036     -47.653
  O      805.338    -549.315     -48.864
  P      806.560    -548.414     -49.345
  C      807.042    -550.259     -51.155
  O      807.000    -548.892     -50.803
  C      807.893    -550.419     -52.428
  O      809.226    -549.928     -52.202
  C      807.993    -551.880     -52.846
  O      806.998    -552.186     -53.822
  C      809.402    -551.971     -53.390
  O      809.466    -551.482     -54.742
  C      810.162    -551.004     -52.437
  N      810.604    -551.530     -51.130
  C      811.592    -552.513     -51.079
  O      812.157    -552.960     -52.069
  N      811.894    -552.979     -49.824
  C      811.351    -552.539     -48.644
  O      811.452    -553.118     -47.573
  C      810.523    -551.332     -48.757
  C      810.171    -550.899     -49.969
  O      807.764    -548.914     -48.412
  O      806.349    -546.936     -49.242
  H      808.681    -551.813     -55.204
  H      807.898    -548.304     -47.662
  H      812.510    -553.787     -49.790
  H      810.183    -550.856     -47.834
  H      809.529    -550.030     -50.066
  H      811.045    -550.587     -52.930
  H      809.750    -553.005     -53.421
  H      807.903    -552.538     -51.974
  H      807.438    -549.817     -53.229
  H      806.033    -550.635     -51.316
  H      807.479    -550.842     -50.333
  P      806.002    -553.416     -53.561
  C      803.998    -552.149     -54.543
  O      804.849    -553.270     -54.676
  O      805.515    -553.569     -52.153
  O      806.851    -554.692     -54.027
  H      807.261    -555.123     -53.256
  H      803.390    -552.066     -55.452
  H      804.581    -551.236     -54.417
  H      803.333    -552.290     -53.689
  H      803.871    -549.752     -47.512
  H      804.234    -548.053     -47.699
  H      805.341    -549.092     -46.834

 3  4  5  6  7  8  9  10  11  12  13  23  28  29  30  31  32 0
 6-311+G(2d,p)
 ****
 33  34 0
 6-311+G(2d,p)
 ****
 1  2  14  15  16  17  18  19  20  21  22  24  25  26  27 0
 3-21G
 ****
 35  36  37  38  39  40  41  42  43  44  45 0
 3-21G
 ****


