%nproc=1
%NoSave
%Mem=1900MB
#P OB98/GEN NMR

erre ene a

0 1
  C     -622.202     555.943     538.573
  O     -623.573     556.209     538.819
  P     -624.705     555.187     538.305
  C     -627.182     554.865     538.932
  O     -625.898     555.300     539.376
  C     -628.121     554.655     540.144
  O     -627.493     553.804     541.123
  C     -628.502     555.936     540.872
  O     -629.478     556.657     540.150
  C     -628.968     555.383     542.203
  O     -630.318     554.946     542.131
  C     -628.007     554.184     542.412
  N     -626.932     554.485     543.363
  C     -627.306     554.544     544.712
  O     -628.489     554.366     545.037
  N     -626.343     554.824     545.653
  C     -625.133     555.072     545.272
  N     -624.223     555.355     546.243
  C     -624.702     555.061     543.867
  C     -625.646     554.767     542.981
  O     -624.225     553.806     538.014
  O     -625.292     555.942     537.031
  H     -630.510     554.469     542.973
  H     -624.682     555.891     536.250
  H     -623.682     555.264     543.594
  H     -625.433     554.737     541.899
  H     -628.559     553.319     542.802
  H     -628.895     556.137     543.018
  H     -627.598     556.562     541.031
  H     -629.031     554.154     539.769
  H     -624.559     555.385     547.201
  H     -627.056     553.914     538.408
  H     -623.261     555.603     546.061
  H     -627.598     555.609     538.240
  P     -630.106     557.998     540.775
  C     -630.966     560.270     539.911
  O     -630.385     559.000     539.566
  O     -629.358     558.579     541.929
  O     -631.584     557.553     541.207
  H     -631.764     557.915     542.106
  H     -630.802     560.965     539.076
  H     -630.535     560.669     540.813
  H     -632.042     560.115     540.046
  H     -621.606     556.729     538.987
  H     -622.034     555.886     537.518
  H     -621.932     555.013     539.028

 3  4  5  6  7  8  9  10  11  12  13  23  27  28  29  30  32 0
 6-311+G(2d,p)
 ****
 34  35 0
 6-311+G(2d,p)
 ****
 1  2  14  15  16  17  18  19  20  21  22  24  25  26 0
 3-21G
 ****
 31  33  36  37  38  39  40  41  42  43  44  45  46 0
 3-21G
 ****


