%nproc=1
%NoSave
%Mem=1900MB
#P OB98/GEN NMR

erre ene a

0 1
  C      184.427    -381.316     122.394
  O      183.198    -380.750     122.818
  P      181.792    -381.468     122.505
  C      181.403    -381.784     125.042
  O      181.504    -382.405     123.772
  C      180.273    -382.409     125.857
  O      179.006    -382.111     125.205
  C      180.369    -383.937     126.006
  O      179.859    -384.268     127.305
  C      179.430    -384.441     124.923
  O      178.971    -385.762     125.164
  C      178.341    -383.364     124.965
  N      177.562    -383.310     123.726
  C      176.227    -383.730     123.784
  O      175.739    -384.153     124.829
  N      175.475    -383.659     122.640
  C      176.016    -383.287     121.521
  N      175.213    -383.183     120.429
  C      177.448    -382.945     121.396
  C      178.143    -382.960     122.533
  O      181.723    -382.160     121.191
  O      180.707    -380.310     122.691
  H      178.724    -385.828     126.106
  H      180.585    -379.763     121.876
  H      177.867    -382.672     120.438
  H      179.194    -382.693     122.545
  H      177.669    -383.531     125.812
  H      179.952    -384.433     123.959
  H      181.392    -384.308     125.911
  H      180.252    -381.930     126.845
  H      174.217    -383.257     120.592
  H      181.185    -380.720     124.891
  H      175.480    -382.604     119.636
  H      182.362    -381.863     125.573
  P      180.651    -385.362     128.171
  C      182.268    -384.058     129.733
  O      182.103    -384.764     128.519
  O      181.009    -386.467     127.057
  O      179.894    -385.998     129.293
  H      181.123    -387.329     127.490
  H      183.311    -383.731     129.803
  H      182.049    -384.704     130.584
  H      181.624    -383.172     129.745
  H      185.235    -380.685     122.701
  H      184.430    -381.405     121.328
  H      184.544    -382.285     122.833

 3  4  5  6  7  8  9  10  11  12  13  23  27  28  29  30  32 0
 6-311+G(2d,p)
 ****
 34  35 0
 6-311+G(2d,p)
 ****
 1  2  14  15  16  17  18  19  20  21  22  24  25  26 0
 3-21G
 ****
 31  33  36  37  38  39  40  41  42  43  44  45  46 0
 3-21G
 ****


