%nproc=1
%NoSave
%Mem=1900MB
#P OB98/GEN NMR

erre ene a

0 1
  C       77.975    -188.853     -37.699
  O       79.035    -188.338     -36.905
  P       78.839    -188.110     -35.330
  C       81.356    -187.960     -34.819
  O       80.111    -187.268     -34.828
  C       82.480    -187.042     -34.339
  O       82.758    -186.064     -35.371
  C       82.136    -186.280     -33.062
  O       83.318    -186.155     -32.268
  C       81.742    -184.895     -33.548
  O       81.962    -183.904     -32.528
  C       82.622    -184.749     -34.794
  N       80.015    -180.396     -35.594
  C       80.466    -180.976     -34.462
  N       81.131    -182.144     -34.322
  C       81.363    -182.703     -35.520
  C       80.971    -182.227     -36.762
  C       80.259    -181.015     -36.777
  N       79.809    -180.416     -37.934
  N       81.367    -183.090     -37.766
  C       82.005    -184.055     -37.142
  N       82.040    -183.862     -35.788
  O       78.563    -189.346     -34.542
  O       77.642    -187.057     -35.221
  H       81.943    -183.029     -32.968
  H       77.066    -187.272     -34.462
  H       80.264    -180.430     -33.542
  H       82.451    -184.918     -37.619
  H       83.625    -184.382     -34.543
  H       80.677    -184.884     -33.805
  H       81.341    -186.759     -32.480
  H       83.389    -187.645     -34.201
  H       81.572    -188.292     -35.840
  H       79.416    -179.489     -37.856
  H       80.138    -180.785     -38.817
  H       81.275    -188.846     -34.178
  P       83.167    -186.554     -30.712
  C       85.641    -187.290     -31.044
  O       84.670    -186.731     -30.188
  O       82.236    -187.708     -30.518
  O       82.659    -185.169     -30.083
  H       82.941    -184.400     -30.633
  H       86.588    -187.363     -30.497
  H       85.795    -186.645     -31.913
  H       85.339    -188.291     -31.367
  H       78.297    -188.933     -38.716
  H       77.134    -188.194     -37.642
  H       77.695    -189.820     -37.337

 3  4  5  6  7  8  9  10  11  12  22  25  29  30  31  32 0
 6-311+G(2d,p)
 ****
 33  36  37 0
 6-311+G(2d,p)
 ****
 1  2  13  14  15  16  17  18  19  20  21  23  24  26 0
 3-21G
 ****
 27  28  34  35  38  39  40  41  42  43  44  45  46  47  48 0
 3-21G
 ****


