%nproc=1
%NoSave
%Mem=1900MB
#P OB98/GEN NMR

erre ene a

0 1
  C      508.329     472.460      21.975
  O      508.388     471.256      22.714
  H      508.828     472.308      21.016
  H      508.838     473.262      22.510
  H      507.288     472.740      21.787
  P      507.723     471.226      24.173
  C      507.375     473.095      25.922
  O      508.220     472.565      24.907
  C      507.529     474.610      25.994
  O      507.026     475.221      24.786
  C      506.774     475.255      27.153
  O      507.517     475.130      28.356
  C      506.672     476.688      26.656
  O      507.943     477.350      26.826
  C      506.387     476.475      25.157
  N      502.137     479.094      24.233
  C      503.394     479.541      24.611
  N      503.522     480.869      24.815
  N      504.420     478.751      24.797
  C      504.125     477.440      24.623
  C      502.916     476.879      24.265
  C      501.809     477.762      24.011
  O      500.680     477.410      23.657
  N      502.990     475.506      24.259
  C      504.243     475.243      24.574
  N      504.972     476.383      24.820
  O      507.945     469.980      24.976
  O      506.171     471.501      23.899
  H      507.842     478.247      26.457
  H      505.677     470.669      23.796
  H      501.385     479.757      24.124
  H      504.675     474.249      24.627
  H      506.818     477.267      24.533
  H      505.927     477.276      27.185
  H      502.719     481.465      24.969
  H      505.759     474.849      27.255
  H      504.421     481.207      25.145
  H      508.600     474.836      26.046
  H      507.673     472.634      26.871
  H      506.327     472.838      25.719
  P      506.841     475.448      29.783
  C      505.691     477.541      30.768
  O      506.546     477.024      29.761
  O      507.622     474.982      30.963
  O      505.378     474.817      29.688
  H      505.334     473.866      29.963
  H      505.582     478.597      30.635
  H      506.114     477.345      31.731
  H      504.732     477.071      30.697

 6  7  8  9  10  11  12  13  14  15  26  29  33  34 0
 6-311+G(2d,p)
 ****
 36  38  39  40  41 0
 6-311+G(2d,p)
 ****
 1  2  3  4  5  16  17  18  19  20  21  22  23  24  25 0
 3-21G
 ****
 27  28  30  31  32  35  37  42  43  44  45  46  47 0
 3-21G
 ****
 48  49 0
 3-21G
 ****


