%nproc=1
%NoSave
%Mem=1900MB
#P OB98/GEN NMR

erre ene a

0 1
  C      348.768    -882.164     -87.325
  O      348.210    -880.855     -87.182
  P      348.589    -879.929     -85.925
  C      348.863    -877.610     -87.009
  O      348.042    -878.435     -86.189
  C      348.236    -876.277     -87.362
  O      347.190    -876.431     -88.357
  C      347.613    -875.507     -86.186
  O      347.805    -874.123     -86.469
  C      346.154    -875.891     -86.277
  O      345.296    -874.999     -85.577
  C      345.955    -875.920     -87.806
  N      344.796    -876.716     -88.201
  C      343.574    -876.046     -88.290
  O      343.490    -874.847     -87.982
  N      342.454    -876.747     -88.687
  C      342.535    -878.028     -88.864
  N      341.405    -878.682     -89.217
  C      343.798    -878.798     -88.700
  C      344.877    -878.070     -88.383
  O      350.023    -880.004     -85.512
  O      347.636    -880.462     -84.750
  H      345.417    -874.107     -85.944
  H      348.087    -880.338     -83.886
  H      343.815    -879.873     -88.828
  H      345.846    -878.534     -88.244
  H      345.829    -874.883     -88.194
  H      345.995    -876.899     -85.863
  H      348.050    -875.783     -85.213
  H      349.017    -875.657     -87.832
  H      340.550    -878.135     -89.299
  H      349.084    -878.170     -87.927
  H      341.329    -879.685     -89.280
  H      349.826    -877.453     -86.498
  P      348.566    -873.144     -85.453
  C      350.104    -872.111     -87.227
  O      349.067    -871.878     -86.304
  O      349.624    -873.784     -84.632
  O      347.404    -872.538     -84.516
  H      347.814    -872.150     -83.716
  H      350.215    -871.261     -87.900
  H      349.893    -873.016     -87.832
  H      351.055    -872.269     -86.682
  H      348.394    -882.615     -88.220
  H      348.493    -882.763     -86.482
  H      349.834    -882.093     -87.380

 3  4  5  6  7  8  9  10  11  12  13  23  27  28  29  30  32 0
 6-311+G(2d,p)
 ****
 34  35 0
 6-311+G(2d,p)
 ****
 1  2  14  15  16  17  18  19  20  21  22  24  25  26 0
 3-21G
 ****
 31  33  36  37  38  39  40  41  42  43  44  45  46 0
 3-21G
 ****


