%nproc=1
%NoSave
%Mem=1900MB
#P OB98/GEN NMR

erre ene a

0 1
  C      -83.311     257.434      -1.886
  O      -83.307     256.065      -1.470
  P      -84.173     254.994      -2.292
  C      -82.778     254.934      -4.460
  O      -83.210     254.214      -3.315
  C      -81.458     254.360      -5.008
  O      -80.444     254.380      -3.970
  C      -81.599     252.908      -5.504
  O      -81.081     252.713      -6.822
  C      -80.934     252.094      -4.402
  O      -80.474     250.827      -4.851
  C      -79.877     253.057      -3.856
  N      -79.494     252.735      -2.476
  C      -78.592     251.686      -2.310
  O      -78.180     250.995      -3.239
  N      -78.232     251.417      -1.014
  C      -78.721     252.021       0.100
  O      -78.396     251.708       1.240
  C      -79.720     253.080      -0.134
  C      -80.054     253.383      -1.396
  O      -85.448     255.506      -2.882
  O      -84.482     253.863      -1.186
  H      -80.172     250.315      -4.069
  H      -85.398     253.546      -1.325
  H      -77.563     250.672      -0.879
  H      -80.150     253.570       0.726
  H      -80.791     254.147      -1.594
  H      -78.964     253.028      -4.459
  H      -81.677     251.905      -3.613
  H      -82.652     252.612      -5.588
  H      -81.134     255.013      -5.825
  H      -82.619     255.983      -4.199
  H      -83.572     254.926      -5.217
  P      -81.943     252.189      -8.064
  C      -83.468     254.224      -8.576
  O      -82.345     253.450      -8.964
  O      -83.075     251.265      -7.729
  O      -80.853     251.425      -8.968
  H      -81.251     250.603      -9.327
  H      -83.825     254.784      -9.442
  H      -83.166     254.938      -7.802
  H      -84.285     253.596      -8.194
  H      -82.686     258.007      -1.233
  H      -84.310     257.815      -1.849
  H      -82.940     257.504      -2.887

 3  4  5  6  7  8  9  10  11  12  13  23  28  29  30  31  32 0
 6-311+G(2d,p)
 ****
 33  34 0
 6-311+G(2d,p)
 ****
 1  2  14  15  16  17  18  19  20  21  22  24  25  26  27 0
 3-21G
 ****
 35  36  37  38  39  40  41  42  43  44  45 0
 3-21G
 ****


