%nproc=1
%NoSave
%Mem=1900MB
#P OB98/GEN NMR

erre ene a

0 1
  C      -65.243    1012.922     456.016
  O      -64.696    1013.124     457.305
  P      -63.440    1012.210     457.736
  C      -64.611    1010.983     459.718
  O      -63.619    1011.910     459.308
  C      -64.710    1010.940     461.240
  O      -63.572    1010.260     461.803
  C      -64.719    1012.307     461.910
  O      -66.005    1012.915     461.886
  C      -64.327    1011.947     463.328
  O      -65.480    1011.452     464.034
  C      -63.296    1010.821     463.104
  N      -59.551    1012.291     466.164
  C      -60.743    1011.688     466.473
  N      -61.003    1011.495     467.790
  N      -61.614    1011.295     465.573
  C      -61.224    1011.558     464.299
  C      -60.053    1012.149     463.863
  C      -59.105    1012.576     464.874
  O      -58.046    1013.177     464.676
  N      -60.013    1012.231     462.494
  C      -61.144    1011.695     462.109
  N      -61.930    1011.313     463.156
  O      -62.200    1013.226     457.694
  O      -63.206    1011.007     456.863
  H      -65.144    1010.899     464.773
  H      -61.358    1012.723     457.668
  H      -58.909    1012.574     466.899
  H      -61.428    1011.587     461.067
  H      -63.412    1010.025     463.838
  H      -63.956    1012.812     463.903
  H      -60.404    1011.826     468.530
  H      -63.960    1012.970     461.480
  H      -61.912    1011.106     468.038
  H      -65.606    1010.362     461.503
  H      -64.365    1009.980     459.322
  H      -65.581    1011.283     459.275
  P      -66.131    1014.304     461.096
  C      -66.960    1015.659     463.149
  O      -67.260    1015.143     461.879
  O      -66.852    1013.889     459.729
  O      -64.831    1015.002     460.855
  H      -66.641    1014.521     459.016
  H      -67.743    1016.398     463.427
  H      -65.976    1016.155     463.167
  H      -66.971    1014.861     463.907
  H      -66.064    1013.592     455.868
  H      -65.586    1011.912     455.929
  H      -64.492    1013.109     455.277

 3  4  5  6  7  8  9  10  11  12  23  26  30  31 0
 6-311+G(2d,p)
 ****
 33  35  36  37  38 0
 6-311+G(2d,p)
 ****
 1  2  13  14  15  16  17  18  19  20  21  22  24  25 0
 3-21G
 ****
 27  28  29  32  34  39  40  41  42  43  44  45  46  47  48  49 0
 3-21G
 ****


