%nproc=1
%NoSave
%Mem=1900MB
#P OB98/GEN NMR

erre ene a

0 1
  C     -360.404    -389.491    -308.592
  O     -359.561    -390.586    -308.266
  P     -359.953    -392.086    -308.685
  C     -359.611    -392.402    -306.157
  O     -359.497    -392.995    -307.443
  C     -358.799    -393.202    -305.139
  O     -359.480    -394.457    -304.899
  C     -357.385    -393.587    -305.570
  O     -356.405    -392.582    -305.346
  C     -357.114    -394.761    -304.634
  O     -356.768    -394.274    -303.328
  C     -358.474    -395.460    -304.602
  N     -357.646    -400.453    -305.384
  C     -357.480    -399.669    -304.295
  N     -357.703    -398.345    -304.174
  C     -358.197    -397.838    -305.320
  C     -358.426    -398.511    -306.505
  C     -358.131    -399.888    -306.515
  N     -358.329    -400.691    -307.616
  N     -358.916    -397.650    -307.471
  C     -358.987    -396.481    -306.863
  N     -358.573    -396.544    -305.564
  O     -359.449    -392.507    -310.024
  O     -361.546    -392.119    -308.587
  H     -356.121    -393.553    -303.449
  H     -361.896    -392.891    -309.073
  H     -357.109    -400.166    -303.409
  H     -359.330    -395.569    -307.331
  H     -358.709    -395.867    -303.609
  H     -356.286    -395.391    -304.968
  H     -357.362    -393.936    -306.611
  H     -358.779    -392.642    -304.195
  H     -360.666    -392.412    -305.866
  H     -358.213    -401.681    -307.498
  H     -358.837    -400.304    -308.402
  H     -359.278    -391.363    -306.198
  P     -356.186    -391.498    -306.513
  C     -353.595    -391.841    -306.384
  O     -354.689    -390.951    -306.326
  O     -357.246    -390.456    -306.595
  O     -356.084    -392.408    -307.828
  H     -355.296    -392.975    -307.878
  H     -352.673    -391.256    -306.391
  H     -353.633    -392.453    -307.286
  H     -353.591    -392.486    -305.500
  H     -359.968    -388.584    -308.227
  H     -361.363    -389.632    -308.140
  H     -360.516    -389.431    -309.654

 3  4  5  6  7  8  9  10  11  12  22  25  29  30  31  32 0
 6-311+G(2d,p)
 ****
 33  36  37 0
 6-311+G(2d,p)
 ****
 1  2  13  14  15  16  17  18  19  20  21  23  24  26 0
 3-21G
 ****
 27  28  34  35  38  39  40  41  42  43  44  45  46  47  48 0
 3-21G
 ****


