%nproc=1
%NoSave
%Mem=1900MB
#P OB98/GEN NMR

erre ene a

0 1
  C     -287.200    -556.183     -15.004
  O     -286.996    -556.539     -13.650
  H     -286.495    -556.742     -15.622
  H     -287.023    -555.114     -15.142
  H     -288.218    -556.435     -15.312
  P     -287.927    -555.802     -12.571
  C     -288.426    -553.330     -11.966
  O     -287.637    -554.230     -12.731
  C     -287.582    -552.146     -11.501
  O     -287.187    -551.332     -12.627
  C     -288.282    -551.219     -10.519
  O     -288.204    -551.723      -9.194
  C     -287.490    -549.933     -10.702
  O     -286.251    -549.965      -9.961
  C     -287.220    -549.939     -12.215
  N     -289.350    -545.424     -12.971
  C     -288.319    -545.795     -12.132
  N     -287.813    -544.823     -11.340
  N     -287.832    -547.000     -12.070
  C     -288.456    -547.875     -12.894
  C     -289.478    -547.625     -13.782
  C     -289.987    -546.276     -13.865
  O     -290.857    -545.867     -14.629
  N     -289.834    -548.764     -14.461
  C     -289.057    -549.703     -13.957
  N     -288.216    -549.215     -12.993
  O     -287.228    -556.161     -11.169
  O     -289.363    -556.200     -12.587
  H     -286.452    -550.025      -9.013
  H     -287.913    -556.201     -10.477
  H     -289.671    -544.473     -12.986
  H     -289.066    -550.742     -14.254
  H     -286.246    -549.501     -12.462
  H     -288.045    -549.063     -10.351
  H     -288.345    -543.996     -11.105
  H     -289.326    -551.054     -10.816
  H     -287.067    -545.092     -10.707
  H     -286.662    -552.552     -11.056
  H     -288.822    -553.856     -11.090
  H     -289.265    -552.981     -12.575
  P     -289.382    -551.326      -8.175
  C     -290.370    -549.038      -7.429
  O     -289.240    -549.751      -7.917
  O     -288.904    -551.971      -6.787
  O     -290.739    -551.793      -8.576
  H     -289.654    -552.024      -6.171
  H     -290.116    -548.005      -7.310
  H     -290.667    -549.444      -6.484
  H     -291.177    -549.129      -8.126

 6  7  8  9  10  11  12  13  14  15  26  29  33  34 0
 6-311+G(2d,p)
 ****
 36  38  39  40  41 0
 6-311+G(2d,p)
 ****
 1  2  3  4  5  16  17  18  19  20  21  22  23  24  25 0
 3-21G
 ****
 27  28  30  31  32  35  37  42  43  44  45  46  47 0
 3-21G
 ****
 48  49 0
 3-21G
 ****


