%nproc=1
%NoSave
%Mem=1900MB
#P OB98/GEN NMR

erre ene a

0 1
  C       99.918      -1.293    -158.483
  O       99.923      -2.565    -159.098
  H       98.967      -0.787    -158.670
  H      100.039      -1.423    -157.404
  H      100.745      -0.686    -158.861
  P       99.765      -2.599    -160.694
  C       97.432      -3.523    -161.367
  O       98.200      -2.391    -160.982
  C       96.481      -3.136    -162.495
  O       95.571      -2.106    -162.048
  C       97.171      -2.568    -163.731
  O       97.692      -3.585    -164.568
  C       96.008      -1.850    -164.393
  O       95.160      -2.807    -165.054
  C       95.285      -1.244    -163.183
  N       94.978       3.668    -164.581
  C       94.452       2.545    -165.113
  N       94.584       1.274    -164.684
  C       95.353       1.221    -163.585
  C       95.965       2.280    -162.935
  C       95.747       3.559    -163.474
  N       96.295       4.706    -162.942
  N       96.706       1.830    -161.859
  C       96.516       0.526    -161.844
  N       95.714       0.108    -162.873
  O      100.000      -4.140    -161.063
  O      100.667      -1.686    -161.454
  H       94.414      -2.304    -165.433
  H      100.247      -4.225    -162.003
  H       93.845       2.687    -166.003
  H       96.933      -0.154    -161.114
  H       94.197      -1.219    -163.313
  H       96.324      -1.128    -165.147
  H       97.940      -1.834    -163.462
  H       95.884      -4.020    -162.753
  H       96.851      -3.872    -160.509
  H       96.230       5.539    -163.507
  H       96.985       4.614    -162.213
  H       98.105      -4.320    -161.693
  P       98.941      -3.203    -165.501
  C       97.341      -3.390    -167.543
  O       98.313      -2.611    -166.852
  O       99.512      -4.628    -165.945
  O       99.978      -2.355    -164.840
  H      100.463      -4.571    -166.155
  H       97.019      -2.865    -168.418
  H       96.502      -3.563    -166.902
  H       97.772      -4.327    -167.828

 6  7  8  9  10  11  12  13  14  15  25  28  32  33  34  35 0
 6-311+G(2d,p)
 ****
 36  39  40 0
 6-311+G(2d,p)
 ****
 1  2  3  4  5  16  17  18  19  20  21  22  23  24 0
 3-21G
 ****
 26  27  29  30  31  37  38  41  42  43  44  45  46  47 0
 3-21G
 ****
 48 0
 3-21G
 ****


