%nproc=1
%NoSave
%Mem=1900MB
#P OB98/GEN NMR

erre ene a

0 1
  C     -115.491    -600.285     738.571
  O     -114.596    -600.584     739.598
  P     -114.853    -600.207     741.126
  C     -114.730    -597.624     740.847
  O     -114.155    -598.772     741.437
  C     -114.280    -596.298     741.512
  O     -114.835    -596.227     742.854
  C     -112.744    -596.311     741.681
  O     -111.910    -595.939     740.609
  C     -112.501    -595.572     742.978
  O     -112.139    -594.199     742.779
  C     -113.838    -595.678     743.709
  N     -114.258    -595.718     748.782
  C     -114.668    -594.763     747.895
  N     -115.083    -593.588     748.450
  N     -114.691    -594.926     746.586
  C     -114.138    -596.113     746.178
  C     -113.728    -597.158     746.994
  C     -113.753    -596.983     748.423
  O     -113.333    -597.782     749.253
  N     -113.170    -598.185     746.245
  C     -113.255    -597.755     745.018
  N     -113.796    -596.490     744.925
  O     -114.702    -601.307     742.138
  O     -116.418    -599.792     741.089
  H     -112.945    -593.722     742.490
  H     -116.828    -600.072     741.940
  H     -114.208    -595.507     749.770
  H     -112.885    -598.282     744.153
  H     -114.179    -594.678     744.015
  H     -111.648    -596.028     743.545
  H     -114.957    -593.378     749.406
  H     -112.458    -597.359     741.875
  H     -115.211    -592.808     747.801
  H     -114.661    -595.428     740.973
  H     -115.818    -597.724     740.919
  H     -114.493    -597.585     739.769
  P     -110.625    -596.727     740.063
  C     -109.112    -596.663     742.135
  O     -109.329    -596.162     740.834
  O     -110.411    -596.174     738.592
  O     -110.769    -598.216     740.071
  H     -109.891    -596.846     738.068
  H     -108.418    -596.020     742.675
  H     -108.679    -597.663     742.087
  H     -110.059    -596.714     742.683
  H     -115.097    -600.637     737.641
  H     -115.634    -599.226     738.519
  H     -116.429    -600.762     738.765

 3  4  5  6  7  8  9  10  11  12  23  26  30  31 0
 6-311+G(2d,p)
 ****
 33  35  36  37  38 0
 6-311+G(2d,p)
 ****
 1  2  13  14  15  16  17  18  19  20  21  22  24  25 0
 3-21G
 ****
 27  28  29  32  34  39  40  41  42  43  44  45  46  47  48  49 0
 3-21G
 ****


