%nproc=1
%NoSave
%Mem=1900MB
#P OB98/GEN NMR

erre ene a

0 1
  C     -577.223     -79.918    -339.754
  O     -578.229     -80.210    -338.801
  P     -578.901     -78.974    -338.024
  C     -581.319     -79.531    -338.795
  O     -580.230     -78.615    -338.856
  C     -581.819     -79.857    -340.192
  O     -580.866     -80.702    -340.874
  C     -583.139     -80.618    -340.232
  O     -584.253     -79.757    -340.073
  C     -583.099     -81.207    -341.639
  O     -583.527     -80.209    -342.590
  C     -581.603     -81.509    -341.827
  N     -581.397     -86.124    -343.913
  C     -581.794     -84.918    -344.462
  N     -582.161     -84.943    -345.767
  N     -581.830     -83.792    -343.799
  C     -581.395     -83.915    -342.526
  C     -580.984     -85.053    -341.864
  C     -580.998     -86.300    -342.600
  O     -580.718     -87.407    -342.152
  N     -580.601     -84.770    -340.577
  C     -580.746     -83.467    -340.465
  N     -581.258     -82.907    -341.612
  O     -577.916     -77.755    -338.365
  O     -579.069     -79.161    -336.556
  H     -583.463     -80.616    -343.473
  H     -577.973     -77.075    -337.672
  H     -581.380     -86.957    -344.481
  H     -580.497     -82.890    -339.584
  H     -581.259     -81.216    -342.828
  H     -583.756     -82.070    -341.759
  H     -582.036     -85.745    -346.363
  H     -583.149     -81.431    -339.499
  H     -582.423     -84.060    -346.196
  H     -581.899     -78.918    -340.756
  H     -582.135     -79.081    -338.222
  H     -580.983     -80.443    -338.283
  P     -585.161     -79.993    -338.761
  C     -585.544     -77.421    -338.692
  O     -585.157     -78.590    -337.990
  O     -584.250     -80.941    -337.853
  O     -586.498     -80.593    -339.044
  H     -584.804     -81.469    -337.250
  H     -586.349     -77.633    -339.406
  H     -584.677     -77.020    -339.234
  H     -585.897     -76.677    -337.977
  H     -576.869     -80.829    -340.189
  H     -576.411     -79.413    -339.273
  H     -577.629     -79.291    -340.520

 3  4  5  6  7  8  9  10  11  12  23  26  30  31  33  0
 6-311+G(2d,p)
 ****
 35  36  37  38 0
 6-311+G(2d,p)
 ****
 1  2  13  14  15  16  17  18  19  20  21  22  24  25  27  28  29 0
 3-21G
 ****
 32  34  39  40  41  42  43  44  45  46  47  48  49 0
 3-21G
 ****


