%nproc=1
%NoSave
%Mem=1900MB
#P OB98/GEN NMR

erre ene a

0 1
  C     -364.687     400.968     284.208
  O     -364.890     401.671     282.993
  P     -363.955     402.947     282.706
  C     -362.973     402.125     280.446
  O     -363.815     403.055     281.113
  C     -363.328     402.061     278.958
  O     -364.556     401.330     278.760
  C     -363.559     403.424     278.319
  O     -362.345     404.065     277.960
  C     -364.334     403.029     277.069
  O     -363.432     402.551     276.058
  C     -365.211     401.873     277.584
  N     -370.090     400.547     277.712
  C     -368.975     399.773     277.473
  N     -369.192     398.478     277.161
  N     -367.750     400.228     277.526
  C     -367.684     401.550     277.847
  C     -368.722     402.418     278.111
  C     -370.070     401.901     278.024
  O     -371.104     402.546     278.181
  N     -368.263     403.675     278.395
  C     -366.950     403.570     278.303
  N     -366.555     402.312     277.931
  O     -362.506     402.457     283.176
  O     -364.381     404.196     283.402
  H     -362.761     403.250     275.925
  H     -361.916     403.227     283.302
  H     -371.012     400.147     277.650
  H     -366.251     404.383     278.493
  H     -365.297     401.066     276.855
  H     -364.891     403.861     276.631
  H     -370.113     398.078     277.038
  H     -364.189     404.061     278.947
  H     -368.395     397.904     276.916
  H     -362.522     401.520     278.442
  H     -363.095     401.137     280.892
  H     -361.926     402.430     280.569
  P     -362.375     405.674     277.900
  C     -360.193     406.017     279.275
  O     -360.840     406.124     278.021
  O     -363.007     406.073     279.302
  O     -363.141     406.235     276.743
  H     -363.454     406.945     279.249
  H     -359.113     406.110     279.122
  H     -360.403     405.048     279.739
  H     -360.522     406.819     279.939
  H     -365.373     400.149     284.265
  H     -364.850     401.629     285.034
  H     -363.684     400.596     284.242

 3  4  5  6  7  8  9  10  11  12  23  26  30  31 0
 6-311+G(2d,p)
 ****
 33  35  36  37  38 0
 6-311+G(2d,p)
 ****
 1  2  13  14  15  16  17  18  19  20  21  22  24  25 0
 3-21G
 ****
 27  28  29  32  34  39  40  41  42  43  44  45  46  47  48  49 0
 3-21G
 ****


