%nproc=1
%NoSave
%Mem=1900MB
#P OB98/GEN NMR

erre ene a

0 1
  C      -38.979    -222.906      36.315
  O      -38.024    -223.048      35.256
  P      -38.566    -223.518      33.821
  C      -39.590    -221.555      32.464
  O      -38.422    -222.297      32.789
  C      -39.253    -220.316      31.623
  O      -38.320    -219.450      32.324
  C      -38.608    -220.653      30.271
  O      -38.976    -219.635      29.332
  C      -37.129    -220.534      30.574
  O      -36.359    -220.382      29.377
  C      -37.134    -219.326      31.505
  N      -32.120    -218.762      31.431
  C      -33.029    -218.821      30.390
  N      -32.522    -218.666      29.148
  N      -34.311    -219.007      30.553
  C      -34.673    -219.107      31.856
  C      -33.872    -219.075      32.975
  C      -32.453    -218.895      32.777
  O      -31.596    -218.850      33.660
  N      -34.606    -219.233      34.124
  C      -35.851    -219.369      33.695
  N      -35.944    -219.259      32.335
  O      -40.150    -223.622      34.056
  O      -38.003    -224.821      33.361
  H      -36.793    -219.687      28.834
  H      -40.418    -224.560      34.074
  H      -31.139    -218.631      31.250
  H      -36.709    -219.540      34.327
  H      -37.197    -218.372      30.961
  H      -36.778    -221.433      31.089
  H      -31.553    -218.472      28.952
  H      -38.880    -221.633      29.862
  H      -33.170    -218.659      28.364
  H      -40.171    -219.744      31.462
  H      -40.103    -221.241      33.381
  H      -40.291    -222.211      31.942
  P      -40.387    -219.800      28.592
  C      -42.419    -218.790      29.849
  O      -41.278    -218.552      29.053
  O      -41.066    -221.044      29.345
  O      -40.299    -220.023      27.117
  H      -41.710    -221.482      28.765
  H      -42.195    -218.520      30.887
  H      -42.739    -219.836      29.809
  H      -43.246    -218.163      29.488
  H      -38.479    -222.589      37.206
  H      -39.459    -223.846      36.490
  H      -39.712    -222.177      36.039

 3  4  5  6  7  8  9  10  11  12  23  26  30  31 0
 6-311+G(2d,p)
 ****
 33  35  36  37  38 0
 6-311+G(2d,p)
 ****
 1  2  13  14  15  16  17  18  19  20  21  22  24  25 0
 3-21G
 ****
 27  28  29  32  34  39  40  41  42  43  44  45  46  47  48  49 0
 3-21G
 ****


