%nproc=1
%NoSave
%Mem=1900MB
#P OB98/GEN NMR

erre ene a

0 1
  C      572.152    -897.900     186.013
  O      572.657    -896.710     186.564
  H      571.083    -897.780     185.819
  H      572.287    -898.730     186.716
  H      572.655    -898.130     185.070
  P      574.231    -896.660     186.882
  C      575.009    -895.800     184.555
  O      574.977    -896.880     185.477
  C      576.438    -895.580     184.061
  O      577.309    -895.380     185.200
  C      577.025    -896.760     183.303
  O      576.575    -896.800     181.959
  C      578.521    -896.480     183.427
  O      578.968    -895.550     182.441
  C      578.621    -895.860     184.825
  N      582.812    -897.890     186.893
  C      582.643    -896.920     185.969
  N      581.486    -896.420     185.485
  C      580.433    -897.030     186.060
  C      580.450    -898.040     187.010
  C      581.716    -898.480     187.432
  N      581.888    -899.500     188.343
  N      579.165    -898.440     187.321
  C      578.384    -897.670     186.585
  N      579.105    -896.800     185.812
  O      574.474    -898.040     187.658
  O      574.689    -895.480     187.673
  H      579.902    -895.340     182.644
  H      574.429    -897.890     188.618
  H      583.552    -896.490     185.568
  H      577.299    -897.720     186.565
  H      579.298    -894.990     184.844
  H      579.104    -897.390     183.301
  H      576.789    -897.700     183.815
  H      576.461    -894.670     183.452
  H      574.655    -894.890     185.050
  H      574.344    -896.030     183.716
  H      582.826    -899.770     188.583
  H      581.079    -900.000     188.671
  P      576.491    -898.220     181.224
  C      573.915    -898.500     181.530
  O      575.216    -899.000     181.819
  O      577.733    -899.030     181.827
  O      576.534    -898.160     179.732
  H      578.485    -899.010     181.196
  H      573.181    -899.125     181.994
  H      573.762    -898.496     180.471
  H      573.824    -897.503     181.907

 6  7  8  9  10  11  12  13  14  15  25  28  32  33  34  35 0
 6-311+G(2d,p)
 ****
 36  37  40 0
 6-311+G(2d,p)
 ****
 1  2  3  4  5  16  17  18  19  20  21  22  23  24 0
 3-21G
 ****
 26  27  29  30  31  38  39 41  42  43  44  45  46  47  48 0
 3-21G
 ****


