%nproc=1
%NoSave
%Mem=1900MB
#P OB98/GEN NMR

erre ene a

0 1
  C      809.043      17.965       2.683
  O      807.660      17.820       2.349
  P      806.585      18.514       3.323
  C      805.192      20.727       3.169
  O      806.226      19.911       2.631
  C      804.612      21.634       2.084
  O      805.646      22.501       1.540
  C      804.050      20.886       0.888
  O      802.794      20.289       1.190
  C      803.987      22.002      -0.152
  O      802.823      22.816       0.054
  C      805.260      22.815       0.182
  N      806.351      22.576      -0.750
  C      806.072      22.838      -2.091
  O      804.975      23.228      -2.489
  N      807.101      22.624      -2.969
  C      808.342      22.149      -2.651
  O      809.225      21.987      -3.485
  C      808.561      21.841      -1.231
  C      807.575      22.062      -0.355
  O      807.507      18.906       4.568
  O      805.429      17.624       3.642
  H      808.409      19.171       4.305
  H      802.937      23.243       0.931
  H      806.921      22.821      -3.945
  H      809.530      21.437      -0.941
  H      807.716      21.844       0.698
  H      805.031      23.891       0.175
  H      803.948      21.625      -1.174
  H      804.756      20.110       0.557
  H      803.839      22.263       2.539
  H      805.585      21.347       3.984
  H      804.416      20.078       3.594
  P      802.522      18.829       0.571
  C      803.762      16.547       0.844
  O      803.449      17.812       1.387
  O      803.234      18.956      -0.852
  O      801.065      18.475       0.509
  H      804.101      19.388      -0.805
  H      804.649      16.155       1.347
  H      803.965      16.605      -0.228
  H      802.925      15.856       1.018
  H      809.641      17.457       1.955
  H      809.223      17.543       3.650
  H      809.300      19.004       2.694

 3  4  5  6  7  8  9  10  11  12  13  24  28  29  30  31  32 0
 6-311+G(2d,p)
 ****
 33  34 0
 6-311+G(2d,p)
 ****
 1  2  14  15  16  17  18  19  20  21  22  23  25  26  27 0
 3-21G
 ****
 35  36  37  38  39  40  41  42  43  44  45 0
 3-21G
 ****


