%nproc=1
%NoSave
%Mem=1900MB
#P OB98/GEN NMR

erre ene a

0 1
  C       37.803      64.126      44.558
  O       36.531      63.740      44.027
  P       35.938      62.296      44.391
  C       34.128      62.257      46.228
  O       34.408      62.459      44.850
  C       32.730      62.789      46.591
  O       32.526      64.090      45.983
  C       31.598      61.860      46.116
  O       30.663      61.544      47.150
  C       31.028      62.587      44.907
  O       29.685      62.223      44.620
  C       31.288      64.061      45.241
  N       31.340      64.899      44.040
  C       30.134      65.451      43.613
  O       29.053      65.206      44.142
  N       30.208      66.249      42.502
  C       31.321      66.487      41.754
  O       31.321      67.172      40.740
  C       32.552      65.824      42.215
  C       32.502      65.072      43.323
  O       36.785      61.452      45.287
  O       35.788      61.600      42.946
  H       29.378      62.759      43.860
  H       36.036      60.659      43.036
  H       29.348      66.672      42.189
  H       33.452      65.966      41.635
  H       33.393      64.567      43.678
  H       30.498      64.464      45.882
  H       31.628      62.319      44.027
  H       31.983      60.883      45.802
  H       32.698      62.904      47.679
  H       34.869      62.782      46.833
  H       34.237      61.193      46.470
  P       30.357      60.064      47.672
  C       32.548      59.745      49.021
  O       31.136      59.847      49.053
  O       30.538      58.968      46.667
  O       28.818      60.148      48.127
  H       28.358      59.324      47.859
  H       32.885      59.245      49.934
  H       32.985      60.750      48.992
  H       32.897      59.172      48.152
  H       38.047      65.111      44.219
  H       38.552      63.438      44.225
  H       37.761      64.117      45.627

 3  4  5  6  7  8  9  10  11  12  13  23  28  29  30  31  32 0
 6-311+G(2d,p)
 ****
 33  34 0
 6-311+G(2d,p)
 ****
 1  2  14  15  16  17  18  19  20  21  22  24  25  26  27 0
 3-21G
 ****
 35  36  37  38  39  40  41  42  43  44  45 0
 3-21G
 ****


