%nproc=1
%NoSave
%Mem=1900MB
#P OB98/GEN NMR

erre ene a

0 1
  C       36.606     248.569    -194.208
  O       35.421     249.335    -194.115
  H       37.155     248.879    -195.100
  H       36.351     247.511    -194.301
  H       37.241     248.726    -193.330
  P       34.631     249.281    -192.718
  C       33.188     247.470    -191.547
  O       34.210     247.748    -192.493
  C       33.244     246.006    -191.124
  O       34.570     245.662    -190.669
  C       32.294     245.643    -189.986
  O       30.981     245.379    -190.465
  C       32.949     244.373    -189.466
  O       32.642     243.272    -190.346
  C       34.440     244.722    -189.565
  N       36.343     243.828    -184.948
  C       35.803     242.951    -185.869
  N       35.757     241.651    -185.503
  N       35.346     243.312    -187.041
  C       35.434     244.646    -187.259
  C       35.941     245.615    -186.423
  C       36.458     245.200    -185.139
  O       36.956     245.936    -184.292
  N       35.863     246.861    -186.988
  C       35.288     246.648    -188.156
  N       35.005     245.321    -188.368
  O       33.247     250.011    -193.068
  O       35.319     249.944    -191.572
  H       32.859     243.559    -191.251
  H       33.273     250.920    -192.716
  H       36.670     243.498    -184.059
  H       35.063     247.415    -188.885
  H       35.055     243.848    -189.803
  H       32.594     244.093    -188.471
  H       36.071     241.308    -184.611
  H       32.293     246.406    -189.198
  H       35.368     240.989    -186.166
  H       33.034     245.392    -192.010
  H       32.214     247.682    -192.001
  H       33.326     248.116    -190.674
  P       29.781     245.330    -189.401
  C       28.976     243.660    -187.587
  O       29.866     243.902    -188.667
  O       28.490     245.193    -190.337
  O       29.679     246.512    -188.501
  H       27.958     246.013    -190.291
  H       29.145     242.677    -187.199
  H       27.966     243.738    -187.933
  H       29.146     244.382    -186.816

 6  7  8  9  10  11  12  13  14  15  26  29  33  34 0
 6-311+G(2d,p)
 ****
 36  38  39  40  41 0
 6-311+G(2d,p)
 ****
 1  2  3  4  5  16  17  18  19  20  21  22  23  24  25 0
 3-21G
 ****
 27  28  30  31  32  35  37  42  43  44  45  46  47 0
 3-21G
 ****
 48  49 0
 3-21G
 ****


