%nproc=1
%NoSave
%Mem=1900MB
#P OB98/GEN NMR

erre ene a

0 1
  C      910.854     192.551     340.512
  O      911.602     192.120     341.634
  H      911.064     193.615     340.337
  H      909.786     192.433     340.708
  H      911.138     191.985     339.619
  P      911.577     190.554     341.957
  C      910.418     191.062     344.257
  O      910.427     190.313     343.049
  C      908.987     191.384     344.668
  O      908.265     192.022     343.596
  C      908.149     190.150     344.977
  O      908.510     189.535     346.195
  C      906.751     190.770     345.001
  O      906.502     191.452     346.242
  C      906.847     191.784     343.829
  N      906.172     191.310     342.627
  C      905.115     192.105     342.175
  O      904.810     193.140     342.775
  N      904.411     191.698     341.066
  C      904.750     190.606     340.451
  N      904.009     190.251     339.365
  C      905.879     189.749     340.879
  C      906.529     190.155     341.967
  O      912.918     190.351     342.803
  O      911.457     189.659     340.764
  H      906.465     190.764     346.929
  H      912.991     190.948     343.568
  H      906.125     188.858     340.339
  H      907.370     189.587     342.351
  H      906.407     192.747     344.122
  H      905.967     190.015     344.893
  H      908.179     189.440     344.145
  H      909.015     192.074     345.521
  H      903.228     190.847     339.116
  H      911.000     191.977     344.152
  H      904.154     189.408     338.837
  H      910.902     190.456     345.025
  P      908.874     187.969     346.234
  C      906.803     187.630     347.732
  O      907.504     187.200     346.561
  O      910.022     187.609     347.124
  O      909.106     187.608     344.691
  H      908.334     187.763     344.118
  H      905.912     187.050     347.847
  H      906.545     188.664     347.634
  H      907.428     187.498     348.590

 6  7  8  9  10  11  12  13  14  15  16  26  30  31  32  33  35 0
 6-311+G(2d,p)
 ****
 37  38 0
 6-311+G(2d,p)
 ****
 1  2  3  4  5  17  18  19  20  21  22  23  24  25 0
 3-21G
 ****
 27  28  29  34  36  39  40  41  42  43  44  45  46 0
 3-21G
 ****


