%nproc=1
%NoSave
%Mem=1900MB
#P OB98/GEN NMR

erre ene a

0 1
  C       51.227    1284.200     229.306
  O       52.611    1284.152     229.012
  H       50.684    1283.731     228.474
  H       50.893    1285.236     229.392
  H       51.006    1283.645     230.224
  P       53.649    1284.628     230.139
  C       54.431    1282.302     230.939
  O       54.775    1283.499     230.246
  C       55.338    1281.154     230.469
  O       55.143    1280.911     229.057
  C       56.823    1281.436     230.645
  O       57.221    1281.287     231.997
  C       57.422    1280.407     229.688
  O       57.471    1279.105     230.297
  C       56.410    1280.432     228.525
  N       56.846    1281.237     227.391
  C       57.582    1280.587     226.407
  O       57.884    1279.398     226.484
  N       57.988    1281.359     225.350
  C       57.821    1282.718     225.236
  O       58.295    1283.384     224.314
  C       57.069    1283.350     226.330
  C       56.611    1282.594     227.324
  O       53.043    1285.047     231.441
  O       54.422    1285.850     229.440
  H       57.869    1278.507     229.642
  H       54.097    1286.695     229.812
  H       58.530    1280.902     224.642
  H       56.904    1284.432     226.251
  H       56.052    1283.054     228.139
  H       56.218    1279.405     228.162
  H       58.440    1280.668     229.386
  H       57.069    1282.442     230.275
  H       55.047    1280.239     231.015
  H       53.391    1282.057     230.711
  H       54.548    1282.465     232.012
  P       58.261    1282.323     232.637
  C       56.248    1283.380     233.851
  O       57.597    1282.913     233.971
  O       58.812    1283.352     231.691
  O       59.421    1281.384     233.203
  H       60.267    1281.614     232.771
  H       55.913    1283.749     234.798
  H       55.618    1282.574     233.539
  H       56.206    1284.167     233.127

 6  7  8  9  10  11  12  13  14  15  16  26  31  32  33  34  35 0
 6-311+G(2d,p)
 ****
 36  37 0
 6-311+G(2d,p)
 ****
 1  2  3  4  5  17  18  19  20  21  22  23  24  25 0
 3-21G
 ****
 27  28  29  30  38  39  40  41  42  43  44  45 0
 3-21G
 ****


