%nproc=1
%NoSave
%Mem=1900MB
#P OB98/GEN NMR

erre ene a

0 1
  C     -397.922     208.165    -899.159
  O     -398.305     206.963    -898.499
  P     -397.152     206.017    -897.909
  C     -397.898     205.506    -895.419
  O     -397.049     206.198    -896.329
  C     -398.997     206.460    -894.929
  O     -399.789     206.925    -896.039
  C     -399.947     205.816    -893.939
  O     -399.467     205.906    -892.589
  C     -401.222     206.597    -894.169
  O     -401.151     207.880    -893.509
  C     -401.199     206.772    -895.709
  N     -401.770     205.697    -896.539
  C     -403.135     205.425    -896.489
  O     -403.937     206.061    -895.819
  N     -403.588     204.433    -897.329
  C     -402.862     203.783    -898.279
  O     -403.320     202.930    -899.009
  C     -401.450     204.188    -898.369
  C     -400.983     205.089    -897.509
  O     -395.796     206.687    -898.459
  O     -397.260     204.585    -898.329
  H     -400.320     208.302    -893.789
  H     -395.339     206.087    -899.069
  H     -404.563     204.186    -897.259
  H     -400.848     203.727    -899.139
  H     -399.938     205.405    -897.579
  H     -401.708     207.706    -895.999
  H     -402.097     206.103    -893.739
  H     -400.148     204.766    -894.209
  H     -398.511     207.335    -894.459
  H     -397.324     205.125    -894.579
  H     -398.338     204.640    -895.929
  P     -398.660     204.672    -891.979
  C     -397.053     206.357    -890.889
  O     -397.169     205.207    -891.719
  O     -398.757     203.369    -892.719
  O     -399.245     204.563    -890.489
  H     -399.962     203.877    -890.439
  H     -395.988     206.526    -890.659
  H     -397.599     206.207    -889.949
  H     -397.458     207.234    -891.409
  H     -398.797     208.682    -899.494
  H     -397.304     207.929    -900.000
  H     -397.378     208.787    -898.480

 3  4  5  6  7  8  9  10  11  12  13  23  28  29  30  31  32 0
 6-311+G(2d,p)
 ****
 33  34 0
 6-311+G(2d,p)
 ****
 1  2  14  15  16  17  18  19  20  21  22  24  25  26  27 0
 3-21G
 ****
 35  36  37  38  39  40  41  42  43  44  45 0
 3-21G
 ****


