%nproc=1
%NoSave
%Mem=1900MB
#P OB98/GEN NMR

erre ene a

0 1
  C      287.319     -44.783      14.564
  O      288.454     -44.555      13.754
  H      287.644     -45.260      15.492
  H      286.610     -45.446      14.061
  H      286.833     -43.836      14.812
  P      288.229     -43.966      12.277
  C      288.243     -41.643      13.425
  O      287.577     -42.516      12.525
  C      287.915     -40.190      13.088
  O      288.586     -39.285      13.991
  C      288.350     -39.741      11.696
  O      287.530     -40.250      10.657
  C      288.223     -38.235      11.853
  O      286.836     -37.860      11.795
  C      288.792     -38.031      13.279
  N      290.209     -37.669      13.282
  C      290.517     -36.351      13.643
  O      289.624     -35.557      13.939
  N      291.832     -35.951      13.626
  C      292.754     -36.784      13.260
  N      294.035     -36.323      13.214
  C      292.476     -38.184      12.890
  C      291.197     -38.555      12.916
  O      287.487     -44.844      11.320
  O      289.698     -43.576      11.775
  H      286.802     -36.888      11.748
  H      289.613     -43.218      10.859
  H      293.281     -38.837      12.586
  H      290.912     -39.565      12.641
  H      288.228     -37.261      13.817
  H      288.744     -37.673      11.073
  H      289.404     -39.985      11.518
  H      286.837     -40.050      13.238
  H      294.182     -35.346      13.434
  H      289.318     -41.832      13.349
  H      294.751     -36.808      12.686
  H      287.919     -41.840      14.451
  P      288.033     -40.062       9.143
  C      289.901     -41.810       9.629
  O      289.566     -40.538       9.104
  O      288.126     -38.472       8.995
  O      287.171     -40.688       8.092
  H      287.303     -38.106       8.614
  H      290.954     -41.972       9.527
  H      289.370     -42.568       9.093
  H      289.633     -41.851      10.664

 6  7  8  9  10  11  12  13  14  15  16  26  30  31  32  33  35 0
 6-311+G(2d,p)
 ****
 37  38 0
 6-311+G(2d,p)
 ****
 1  2  3  4  5  17  18  19  20  21  22  23  24  25 0
 3-21G
 ****
 27  28  29  34  36  39  40  41  42  43  44  45  46 0
 3-21G
 ****


