%nproc=1
%NoSave
%Mem=1900MB
#P OB98/GEN NMR

erre ene a

0 1
  C       75.140     184.381      61.404
  O       74.703     183.317      60.546
  P       73.995     181.981      61.085
  C       71.798     181.892      59.718
  O       72.405     182.180      60.973
  C       71.321     180.439      59.666
  O       70.414     180.168      60.762
  C       70.527     180.059      58.425
  O       71.344     179.935      57.276
  C       69.875     178.753      58.877
  O       70.757     177.638      58.693
  C       69.647     179.003      60.379
  N       68.243     179.166      60.722
  C       67.501     177.996      60.904
  O       68.014     176.895      60.697
  N       66.192     178.104      61.302
  C       65.643     179.275      61.402
  N       64.348     179.321      61.817
  C       66.354     180.529      61.086
  C       67.637     180.402      60.759
  O       74.452     181.559      62.443
  O       74.321     180.859      59.992
  H       74.304     179.979      60.413
  H       71.611     177.884      59.100
  H       65.846     181.480      61.142
  H       68.239     181.275      60.524
  H       70.066     178.177      60.967
  H       68.959     178.536      58.317
  H       69.748     180.812      58.250
  H       72.199     179.788      59.772
  H       63.894     178.444      62.036
  H       72.543     182.048      58.930
  H       63.835     180.181      61.950
  H       70.966     182.585      59.552
  P       70.761     180.520      55.902
  C       72.168     182.695      55.744
  O       70.896     182.115      55.955
  O       69.183     180.265      56.023
  O       71.320     179.883      54.671
  H       68.828     179.996      55.156
  H       72.032     183.699      55.334
  H       72.772     182.106      55.048
  H       72.691     182.773      56.701
  H       75.579     185.158      60.814
  H       75.865     184.006      62.096
  H       74.302     184.772      61.942

 3  4  5  6  7  8  9  10  11  12  13  24  27  28  29  30  32 0
 6-311+G(2d,p)
 ****
 34  35 0
 6-311+G(2d,p)
 ****
 1  2  14  15  16  17  18  19  20  21  22  23  25  26 0
 3-21G
 ****
 31  33  36  37  38  39  40  41  42  43  44  45  46 0
 3-21G
 ****


