%nproc=1
%NoSave
%Mem=1900MB
#P OB98/GEN NMR

erre ene a

0 1
  C       15.803     -22.535     -84.136
  O       16.076     -21.185     -84.442
  H       15.179     -22.572     -83.240
  H       16.734     -23.071     -83.939
  H       15.265     -23.011     -84.960
  P       16.964     -20.895     -85.750
  C       19.139     -20.530     -84.368
  O       18.460     -21.319     -85.336
  C       20.623     -20.407     -84.726
  O       21.256     -21.700     -84.578
  C       20.862     -19.930     -86.159
  O       21.914     -18.963     -86.166
  C       21.279     -21.185     -86.904
  O       22.092     -20.896     -88.039
  C       21.959     -22.000     -85.798
  N       21.934     -23.433     -86.086
  C       23.009     -23.948     -86.817
  O       23.913     -23.202     -87.198
  N       23.010     -25.279     -87.145
  C       21.997     -26.022     -86.827
  N       22.047     -27.328     -87.200
  C       20.819     -25.511     -86.098
  C       20.857     -24.224     -85.758
  O       17.024     -19.298     -85.795
  O       16.466     -21.520     -87.009
  H       22.157     -21.713     -88.581
  H       17.359     -18.974     -86.665
  H       19.992     -26.165     -85.869
  H       20.034     -23.762     -85.223
  H       23.004     -21.687     -85.672
  H       20.384     -21.711     -87.259
  H       19.976     -19.487     -86.613
  H       21.100     -19.739     -84.000
  H       22.866     -27.640     -87.707
  H       19.036     -21.005     -83.388
  H       21.303     -27.989     -87.031
  H       18.687     -19.534     -84.334
  P       21.463     -17.437     -86.377
  C       21.995     -17.134     -88.896
  O       20.991     -17.279     -87.904
  O       22.842     -16.629     -86.315
  O       20.478     -16.959     -85.364
  H       22.965     -16.231     -85.434
  H       21.535     -17.040     -89.858
  H       22.631     -17.994     -88.888
  H       22.575     -16.259     -88.691

 6  7  8  9  10  11  12  13  14  15  16  26  30  31  32  33  35 0
 6-311+G(2d,p)
 ****
 37  38 0
 6-311+G(2d,p)
 ****
 1  2  3  4  5  17  18  19  20  21  22  23  24  25 0
 3-21G
 ****
 27  28  29  34  36  39  40  41  42  43  44  45  46 0
 3-21G
 ****


