%nproc=1
%NoSave
%Mem=1900MB
#P OB98/GEN NMR

erre ene a

0 1
  C      382.917     -19.229     -78.445
  O      383.318     -17.937     -78.019
  P      382.713     -16.674     -78.808
  C      380.296     -15.777     -79.112
  O      381.128     -16.910     -78.890
  C      379.065     -16.145     -79.945
  O      379.477     -16.383     -81.312
  C      378.323     -17.389     -79.449
  O      376.924     -17.170     -79.641
  C      378.785     -18.477     -80.401
  O      377.842     -19.544     -80.480
  C      378.975     -17.678     -81.698
  N      379.878     -18.345     -82.631
  C      379.328     -19.343     -83.439
  O      378.154     -19.678     -83.292
  N      380.135     -19.972     -84.354
  C      381.404     -19.704     -84.386
  N      382.158     -20.351     -85.313
  C      382.046     -18.747     -83.463
  C      381.231     -18.095     -82.636
  O      383.203     -16.926     -80.310
  O      383.148     -15.348     -78.286
  H      378.232     -20.252     -81.040
  H      383.359     -16.081     -80.771
  H      383.116     -18.587     -83.508
  H      381.610     -17.357     -81.943
  H      378.011     -17.524     -82.202
  H      379.744     -18.889     -80.059
  H      378.524     -17.613     -78.398
  H      378.389     -15.282     -79.955
  H      381.698     -21.012     -85.924
  H      380.863     -15.020     -79.660
  H      383.157     -20.206     -85.409
  H      379.997     -15.351     -78.149
  P      375.912     -17.936     -78.660
  C      375.787     -18.154     -76.106
  O      376.617     -17.892     -77.220
  O      376.151     -19.465     -79.085
  O      374.466     -17.582     -78.719
  H      375.538     -20.042     -78.596
  H      376.416     -18.227     -75.213
  H      375.252     -19.097     -76.238
  H      375.077     -17.333     -75.968
  H      383.393     -19.969     -77.836
  H      383.201     -19.372     -79.467
  H      381.855     -19.321     -78.354

 3  4  5  6  7  8  9  10  11  12  13  21  23  27  28  29  30  32 0
 6-311+G(2d,p)
 ****
 34  35 0
 6-311+G(2d,p)
 ****
 1  2  14  15  16  17  18  19  20  22  24  25  26 0
 3-21G
 ****
 31  33  36  37  38  39  40  41  42  43  44  45  46 0
 3-21G
 ****


