%nproc=1
%NoSave
%Mem=1900MB
#P OB98/GEN NMR

erre ene a

0 1
  C       76.088      -3.297     -71.490
  O       76.601      -2.872     -72.737
  H       76.352      -2.553     -70.733
  H       76.518      -4.258     -71.200
  H       74.999      -3.375     -71.537
  P       76.493      -3.861     -73.995
  C       78.879      -4.793     -74.277
  O       77.577      -5.022     -73.755
  C       79.640      -6.111     -74.434
  O       79.973      -6.613     -73.110
  C       78.845      -7.199     -75.168
  O       79.749      -7.943     -75.989
  C       78.326      -8.053     -74.030
  O       78.026      -9.367     -74.461
  C       79.455      -7.951     -72.998
  N       78.968      -8.241     -71.651
  C       79.942      -8.448     -70.666
  O       81.140      -8.368     -70.951
  N       79.545      -8.805     -69.402
  C       78.286      -8.995     -69.150
  N       77.963      -9.386     -67.888
  C       77.226      -8.816     -70.166
  C       77.631      -8.439     -71.379
  O       76.552      -3.222     -75.343
  O       75.099      -4.615     -73.763
  H       77.695      -9.893     -73.701
  H       74.378      -4.128     -74.205
  H       76.192      -8.992     -69.909
  H       76.924      -8.294     -72.192
  H       80.266      -8.650     -73.238
  H       77.403      -7.614     -73.628
  H       78.032      -6.793     -75.780
  H       80.589      -5.907     -74.946
  H       78.727      -9.520     -67.235
  H       79.414      -4.140     -73.575
  H       77.023      -9.604     -67.588
  H       78.806      -4.285     -75.245
  P       80.229      -7.366     -77.406
  C       78.158      -8.254     -78.622
  O       78.941      -7.101     -78.334
  O       81.315      -8.158     -78.068
  O       80.748      -5.887     -77.060
  H       81.460      -5.642     -77.684
  H       77.330      -7.977     -79.241
  H       77.795      -8.676     -77.708
  H       78.760      -8.975     -79.134

 6  7  8  9  10  11  12  13  14  15  16  26  30  31  32  33  35 0
 6-311+G(2d,p)
 ****
 37  38 0
 6-311+G(2d,p)
 ****
 1  2  3  4  5  17  18  19  20  21  22  23  24  25 0
 3-21G
 ****
 27  28  29  34  36  39  40  41  42  43  44  45  46 0
 3-21G
 ****


