%nproc=1
%NoSave
%Mem=1900MB
#P OB98/GEN NMR

erre ene a

0 1
  C     -331.934     272.745    -123.816
  O     -332.068     271.420    -124.345
  P     -331.583     270.221    -123.385
  C     -329.324     269.747    -124.588
  O     -329.975     270.195    -123.399
  C     -327.801     269.856    -124.477
  O     -327.329     268.961    -123.439
  C     -327.036     269.496    -125.757
  O     -325.899     270.364    -125.876
  C     -326.517     268.098    -125.473
  O     -325.381     267.774    -126.275
  C     -326.233     268.212    -123.977
  N     -323.391     265.369    -120.901
  C     -323.252     266.699    -121.252
  N     -322.195     267.355    -120.729
  N     -324.078     267.328    -122.047
  C     -325.112     266.555    -122.470
  C     -325.360     265.232    -122.186
  C     -324.413     264.538    -121.336
  O     -324.454     263.344    -121.030
  N     -326.507     264.797    -122.803
  C     -326.940     265.846    -123.470
  N     -326.126     266.936    -123.304
  O     -332.002     268.908    -124.203
  O     -332.210     270.241    -122.033
  H     -324.768     268.530    -126.221
  H     -332.579     268.346    -123.655
  H     -322.720     264.930    -120.303
  H     -327.819     265.866    -124.099
  H     -325.311     268.774    -123.790
  H     -327.307     267.364    -125.683
  H     -321.558     266.949    -120.058
  H     -327.638     269.541    -126.672
  H     -322.104     268.344    -120.936
  H     -327.553     270.874    -124.161
  H     -329.669     270.345    -125.437
  H     -329.617     268.708    -124.774
  P     -326.127     271.737    -126.669
  C     -325.544     270.913    -129.070
  O     -326.549     271.320    -128.156
  O     -324.644     272.318    -126.841
  O     -327.036     272.699    -125.977
  H     -324.667     273.293    -126.911
  H     -324.582     270.745    -128.572
  H     -325.419     271.688    -129.829
  H     -325.859     269.989    -129.552
  H     -332.285     273.454    -124.536
  H     -330.905     272.939    -123.597
  H     -332.512     272.831    -122.920

 3  4  5  6  7  8  9  10  11  12  23  26  30  31  33  0
 6-311+G(2d,p)
 ****
 35  36  37  38 0
 6-311+G(2d,p)
 ****
 1  2  13  14  15  16  17  18  19  20  21  22  24  25  27  28  29 0
 3-21G
 ****
 32  34  39  40  41  42  43  44  45  46  47  48  49 0
 3-21G
 ****


