%nproc=1
%NoSave
%Mem=1900MB
#P OB98/GEN NMR

erre ene a

0 1
  C      525.749     432.567    -203.474
  O      525.507     431.643    -202.419
  P      525.286     432.043    -200.886
  C      522.721     432.574    -200.852
  O      523.776     431.699    -200.488
  C      521.356     432.165    -200.251
  O      520.360     433.177    -200.576
  C      520.869     430.859    -200.882
  O      521.333     429.617    -200.379
  C      519.352     430.993    -200.911
  O      518.727     430.407    -199.765
  C      519.135     432.512    -200.914
  N      515.567     435.209    -203.416
  C      515.655     434.903    -202.073
  N      514.630     435.336    -201.295
  N      516.635     434.231    -201.537
  C      517.540     433.790    -202.443
  C      517.556     434.008    -203.798
  C      516.491     434.808    -204.379
  O      516.383     435.109    -205.556
  N      518.623     433.378    -204.396
  C      519.245     432.768    -203.402
  N      518.619     432.990    -202.194
  O      525.803     433.389    -200.493
  O      526.152     430.944    -200.086
  H      518.628     429.451    -199.932
  H      526.489     431.384    -199.278
  H      514.799     435.748    -203.776
  H      520.130     432.166    -203.500
  H      518.395     432.800    -200.154
  H      518.938     430.482    -201.791
  H      513.790     435.753    -201.659
  H      521.184     430.876    -201.929
  H      514.580     434.933    -200.355
  H      521.407     432.133    -199.167
  H      522.668     432.586    -201.944
  H      522.961     433.600    -200.548
  P      522.381     428.641    -201.098
  C      524.567     428.530    -199.764
  O      523.280     427.961    -199.961
  O      523.419     429.639    -201.813
  O      521.791     427.696    -202.090
  H      523.940     429.163    -202.486
  H      525.180     427.814    -199.209
  H      524.478     429.450    -199.174
  H      525.052     428.754    -200.715
  H      525.860     432.035    -204.396
  H      526.644     433.116    -203.269
  H      524.925     433.245    -203.551

 3  4  5  6  7  8  9  10  11  12  23  26  30  31 0
 6-311+G(2d,p)
 ****
 33  35  36  37  38 0
 6-311+G(2d,p)
 ****
 1  2  13  14  15  16  17  18  19  20  21  22  24  25 0
 3-21G
 ****
 27  28  29  32  34  39  40  41  42  43  44  45  46  47  48  49 0
 3-21G
 ****


