%nproc=1
%NoSave
%Mem=1900MB
#P OB98/GEN NMR

erre ene a

0 1
  C     -167.858     772.663     507.767
  O     -167.101     772.875     508.944
  H     -167.292     773.043     506.913
  H     -168.803     773.209     507.833
  H     -168.048     771.597     507.620
  P     -167.653     772.180     510.277
  C     -165.692     770.518     510.795
  O     -167.025     770.699     510.341
  C     -165.409     769.035     511.009
  O     -166.278     768.489     512.029
  C     -165.683     768.164     509.797
  O     -164.718     768.323     508.783
  C     -165.669     766.780     510.432
  O     -164.333     766.265     510.545
  C     -166.271     767.051     511.833
  N     -167.591     766.475     511.975
  C     -167.617     765.087     512.170
  O     -166.568     764.452     512.229
  N     -168.830     764.456     512.249
  C     -169.926     765.145     512.113
  N     -171.100     764.455     512.177
  C     -169.941     766.607     511.911
  C     -168.752     767.201     511.852
  O     -169.192     771.912     509.916
  O     -167.447     772.974     511.527
  H     -164.423     765.339     510.848
  H     -169.320     771.482     509.058
  H     -170.878     767.136     511.822
  H     -168.670     768.269     511.698
  H     -165.622     766.638     512.618
  H     -166.240     766.057     509.843
  H     -166.697     768.351     509.417
  H     -164.365     768.933     511.349
  H     -171.038     763.445     512.262
  H     -165.519     771.077     511.720
  H     -172.002     764.870     512.012
  H     -165.024     770.927     510.032
  P     -164.956     767.756     507.304
  C     -167.080     769.196     507.078
  O     -166.536     767.879     507.008
  O     -164.397     766.399     507.042
  O     -164.350     768.905     506.371
  H     -164.770     769.777     506.472
  H     -168.128     769.161     506.866
  H     -166.592     769.822     506.361
  H     -166.928     769.593     508.060

 6  7  8  9  10  11  12  13  14  15  16  26  30  31  32  33  35 0
 6-311+G(2d,p)
 ****
 37  38 0
 6-311+G(2d,p)
 ****
 1  2  3  4  5  17  18  19  20  21  22  23  24  25 0
 3-21G
 ****
 27  28  29  34  36  39  40  41  42  43  44  45  46 0
 3-21G
 ****


