%nproc=1
%NoSave
%Mem=1900MB
#P OB98/GEN NMR

erre ene a

0 1
  C      146.954      44.789    -100.781
  O      147.697      45.481     -99.799
  H      146.358      43.999    -100.317
  H      146.278      45.493    -101.275
  H      147.625      44.358    -101.530
  P      148.729      44.613     -98.929
  C      150.837      43.218     -99.545
  O      149.657      43.863    -100.003
  C      150.906      41.814    -100.137
  O      149.728      41.061     -99.765
  C      150.949      41.790    -101.660
  O      152.252      42.010    -102.172
  C      150.480      40.372    -101.934
  O      151.552      39.447    -101.680
  C      149.370      40.204    -100.884
  N      144.524      38.665    -101.475
  C      145.595      38.074    -100.901
  N      146.845      38.559    -100.765
  C      146.937      39.792    -101.288
  C      145.932      40.523    -101.899
  C      144.672      39.908    -101.990
  N      143.587      40.493    -102.603
  N      146.413      41.744    -102.331
  C      147.680      41.752    -101.970
  N      148.053      40.581    -101.365
  O      147.829      43.428     -98.341
  O      149.480      45.355     -97.875
  H      151.199      38.551    -101.840
  H      148.300      42.968     -97.621
  H      145.424      37.079    -100.501
  H      148.368      42.572    -102.131
  H      149.297      39.178    -100.508
  H      150.165      40.223    -102.970
  H      150.228      42.494    -102.094
  H      151.776      41.303     -99.710
  H      150.809      43.156     -98.453
  H      142.774      39.916    -102.750
  H      143.725      41.351    -103.117
  H      151.712      43.799     -99.852
  P      152.373      42.681    -103.626
  C      151.407      44.823    -104.733
  O      151.336      43.905    -103.648
  O      151.686      41.597    -104.579
  O      153.770      43.002    -104.048
  H      152.100      41.598    -105.463
  H      150.659      45.578    -104.611
  H      151.241      44.302    -105.653
  H      152.375      45.279    -104.752

 6  7  8  9  10  11  12  13  14  15  25  28  32  33  34  35 0
 6-311+G(2d,p)
 ****
 36  39  40 0
 6-311+G(2d,p)
 ****
 1  2  3  4  5  16  17  18  19  20  21  22  23  24 0
 3-21G
 ****
 26  27  29  30  31  37  38  41  42  43  44  45  46  47 0
 3-21G
 ****
 48 0
 3-21G
 ****


