%nproc=1
%NoSave
%Mem=1900MB
#P OB98/GEN NMR

erre ene a

0 1
  C     -145.024    -521.852    -543.314
  O     -144.004    -520.881    -543.576
  P     -142.700    -521.381    -544.367
  C     -143.580    -521.721    -546.813
  O     -142.901    -520.892    -545.881
  C     -142.844    -521.709    -548.157
  O     -143.289    -522.804    -548.992
  C     -143.077    -520.449    -548.978
  O     -142.353    -519.348    -548.453
  C     -142.622    -520.921    -550.358
  O     -141.191    -520.867    -550.453
  C     -143.097    -522.386    -550.363
  N     -144.303    -522.592    -551.159
  C     -144.154    -523.351    -552.312
  O     -143.072    -523.814    -552.674
  N     -145.285    -523.553    -553.051
  C     -146.522    -523.048    -552.771
  O     -147.506    -523.269    -553.470
  C     -146.614    -522.213    -551.564
  C     -145.520    -522.023    -550.823
  O     -142.957    -522.961    -544.423
  O     -141.423    -520.969    -543.714
  H     -143.899    -523.189    -544.521
  H     -140.928    -519.971    -550.163
  H     -145.201    -524.111    -553.886
  H     -147.575    -521.778    -551.325
  H     -145.566    -521.407    -549.931
  H     -142.313    -523.037    -550.771
  H     -143.026    -520.306    -551.165
  H     -144.147    -520.215    -549.003
  H     -141.774    -521.840    -547.958
  H     -144.603    -521.358    -546.962
  H     -143.641    -522.734    -546.407
  P     -143.154    -517.960    -548.308
  C     -144.215    -518.279    -545.942
  O     -143.243    -517.652    -546.734
  O     -144.640    -518.419    -548.696
  O     -142.605    -516.857    -549.153
  H     -144.896    -519.258    -548.282
  H     -143.910    -518.227    -544.892
  H     -144.343    -519.333    -546.216
  H     -145.176    -517.758    -546.048
  H     -145.830    -521.389    -542.785
  H     -144.618    -522.645    -542.722
  H     -145.386    -522.248    -544.240

 3  4  5  6  7  8  9  10  11  12  13  24  28  29  30  31  32 0
 6-311+G(2d,p)
 ****
 33  34 0
 6-311+G(2d,p)
 ****
 1  2  14  15  16  17  18  19  20  21  22  23  25  26  27 0
 3-21G
 ****
 35  36  37  38  39  40  41  42  43  44  45 0
 3-21G
 ****


