%nproc=1
%NoSave
%Mem=1900MB
#P OB98/GEN NMR

erre ene a

0 1
  C     -105.298    -253.927    -473.445
  O     -105.204    -253.406    -474.771
  P     -105.694    -251.910    -475.068
  C     -103.788    -251.030    -476.577
  O     -104.417    -250.971    -475.304
  C     -103.429    -249.618    -477.050
  O     -104.615    -248.843    -477.347
  C     -102.693    -248.805    -475.991
  O     -101.375    -249.209    -475.686
  C     -102.889    -247.381    -476.483
  O     -101.935    -247.032    -477.484
  C     -104.311    -247.456    -477.086
  N     -105.324    -246.844    -476.225
  C     -105.424    -245.457    -476.285
  O     -104.688    -244.756    -476.978
  N     -106.382    -244.893    -475.485
  C     -107.207    -245.562    -474.628
  O     -108.033    -245.001    -473.915
  C     -107.036    -247.023    -474.588
  C     -106.119    -247.589    -475.372
  O     -106.721    -251.366    -474.131
  O     -106.306    -252.028    -476.550
  H     -101.051    -247.245    -477.134
  H     -107.123    -251.492    -476.577
  H     -106.477    -243.890    -475.522
  H     -107.670    -247.583    -473.913
  H     -105.981    -248.665    -475.362
  H     -104.341    -246.936    -478.055
  H     -102.777    -246.656    -475.669
  H     -103.255    -248.896    -475.049
  H     -102.847    -249.696    -477.972
  H     -104.454    -251.510    -477.298
  H     -102.897    -251.665    -476.507
  P     -100.953    -249.839    -474.270
  C     -100.456    -252.228    -475.143
  O     -101.248    -251.411    -474.311
  O     -101.359    -249.097    -473.041
  O      -99.347    -249.806    -474.378
  H      -98.985    -249.658    -473.487
  H     -100.809    -253.264    -475.058
  H      -99.409    -252.192    -474.837
  H     -100.552    -251.912    -476.187
  H     -104.929    -254.931    -473.429
  H     -106.320    -253.918    -473.130
  H     -104.715    -253.323    -472.782

 3  4  5  6  7  8  9  10  11  12  13  23  28  29  30  31  32 0
 6-311+G(2d,p)
 ****
 33  34 0
 6-311+G(2d,p)
 ****
 1  2  14  15  16  17  18  19  20  21  22  24  25  26  27 0
 3-21G
 ****
 35  36  37  38  39  40  41  42  43  44  45 0
 3-21G
 ****


