%nproc=1
%NoSave
%Mem=1900MB
#P OB98/GEN NMR

erre ene a

0 1
  C      649.856     417.682    -179.146
  O      650.883     417.333    -178.241
  H      648.897     417.374    -178.724
  H      650.003     417.157    -180.095
  H      649.842     418.761    -179.313
  P      652.381     417.776    -178.631
  C      652.727     418.998    -176.370
  O      653.171     417.972    -177.241
  C      652.511     418.449    -174.953
  O      651.388     417.511    -174.986
  C      653.719     417.711    -174.368
  O      653.758     417.960    -172.958
  C      653.353     416.243    -174.578
  O      654.069     415.368    -173.704
  C      651.846     416.305    -174.332
  N      651.073     411.392    -173.515
  C      651.781     412.327    -172.778
  N      652.374     411.888    -171.649
  N      651.903     413.586    -173.123
  C      651.221     413.893    -174.251
  C      650.489     413.062    -175.079
  C      650.400     411.671    -174.702
  O      649.799     410.789    -175.323
  N      649.987     413.758    -176.153
  C      650.408     415.002    -175.979
  N      651.159     415.131    -174.842
  O      652.170     419.277    -179.161
  O      653.059     416.912    -179.639
  H      653.713     415.500    -172.798
  H      652.059     419.280    -180.130
  H      651.025     410.432    -173.217
  H      650.200     415.827    -176.642
  H      651.600     416.381    -173.266
  H      653.572     415.946    -175.611
  H      652.295     410.945    -171.298
  H      654.683     417.979    -174.818
  H      652.861     412.564    -171.073
  H      652.201     419.276    -174.304
  H      651.784     419.409    -176.745
  H      653.478     419.797    -176.345
  P      655.175     418.299    -172.286
  C      654.458     420.714    -171.621
  O      654.943     419.444    -171.186
  O      655.938     419.072    -173.456
  O      655.932     417.098    -171.821
  H      656.908     418.949    -173.364
  H      654.356     421.365    -170.778
  H      653.506     420.590    -172.093
  H      655.149     421.140    -172.319

 6  7  8  9  10  11  12  13  14  15  26  29  33  34 0
 6-311+G(2d,p)
 ****
 36  38  39  40  41 0
 6-311+G(2d,p)
 ****
 1  2  3  4  5  16  17  18  19  20  21  22  23  24  25 0
 3-21G
 ****
 27  28  30  31  32  35  37  42  43  44  45  46  47 0
 3-21G
 ****
 48  49 0
 3-21G
 ****


