%nproc=1
%NoSave
%Mem=1900MB
#P OB98/GEN NMR

erre ene a

0 1
  C     -293.937      15.581      65.447
  O     -295.260      15.271      65.916
  P     -295.970      16.272      66.966
  C     -296.409      14.551      68.885
  O     -295.761      15.744      68.467
  C     -296.760      14.600      70.382
  O     -295.549      14.605      71.190
  C     -297.583      15.836      70.795
  O     -298.449      15.433      71.863
  C     -296.508      16.777      71.323
  O     -297.025      17.799      72.171
  C     -295.600      15.770      72.039
  N     -294.249      16.268      72.303
  C     -294.101      17.301      73.229
  O     -295.035      17.851      73.803
  N     -292.811      17.700      73.483
  C     -291.682      17.221      72.871
  O     -290.562      17.648      73.114
  C     -291.898      16.165      71.876
  C     -293.154      15.738      71.650
  O     -297.527      15.958      66.716
  O     -295.694      17.724      66.755
  H     -297.289      17.373      73.005
  H     -298.026      16.798      66.652
  H     -292.687      18.429      74.158
  H     -291.030      15.746      71.380
  H     -293.330      14.947      70.917
  H     -296.065      15.463      72.983
  H     -296.004      17.259      70.482
  H     -298.164      16.261      69.972
  H     -297.307      13.684      70.627
  H     -295.733      13.702      68.707
  H     -297.309      14.405      68.286
  P     -299.986      15.086      71.515
  C     -301.151      17.321      72.230
  O     -300.719      16.483      71.186
  O     -300.534      14.722      72.980
  O     -300.166      13.981      70.517
  H     -300.244      15.352      73.660
  H     -300.420      17.372      73.036
  H     -302.104      16.954      72.628
  H     -301.296      18.330      71.827
  H     -293.614      14.824      64.763
  H     -293.264      15.621      66.278
  H     -293.948      16.529      64.951

 3  4  5  6  7  8  9  10  11  12  13  23  28  29  30  31  32 0
 6-311+G(2d,p)
 ****
 33  34 0
 6-311+G(2d,p)
 ****
 1  2  14  15  16  17  18  19  20  21  22  24  25  26 0
 3-21G
 ****
 27  35  36  37  38  39  40  41  42  43  44  45 0
 3-21G
 ****


