%nproc=1
%NoSave
%Mem=1900MB
#P OB98/GEN NMR

erre ene a

0 1
  C      -36.942    -112.679     -76.164
  O      -37.462    -111.565     -75.431
  P      -38.628    -110.703     -76.116
  C      -36.994    -108.891     -77.005
  O      -37.997    -109.846     -77.320
  C      -36.717    -107.956     -78.192
  O      -35.736    -108.543     -79.094
  C      -37.960    -107.649     -79.032
  O      -37.812    -106.339     -79.594
  C      -37.865    -108.670     -80.150
  O      -38.666    -108.302     -81.273
  C      -36.356    -108.674     -80.390
  N      -35.484    -110.795     -84.885
  C      -35.985    -109.546     -84.570
  N      -36.263    -108.729     -85.610
  N      -36.195    -109.133     -83.347
  C      -35.838    -110.046     -82.410
  C      -35.338    -111.315     -82.593
  C      -35.134    -111.766     -83.954
  O      -34.706    -112.866     -84.291
  N      -35.121    -111.946     -81.394
  C      -35.495    -111.061     -80.489
  N      -35.903    -109.881     -81.054
  O      -38.957    -109.597     -75.005
  O      -39.844    -111.498     -76.464
  H      -39.564    -108.092     -80.935
  H      -39.821    -109.788     -74.597
  H      -35.353    -111.063     -85.844
  H      -35.493    -111.222     -79.422
  H      -36.031    -107.829     -81.012
  H      -38.207    -109.650     -79.793
  H      -36.077    -108.965     -86.573
  H      -38.908    -107.705     -78.489
  H      -36.592    -107.792     -85.407
  H      -36.289    -107.022     -77.810
  H      -36.068    -109.399     -76.719
  H      -37.305    -108.328     -76.119
  P      -38.826    -105.209     -79.080
  C      -40.740    -105.148     -80.836
  O      -40.279    -105.646     -79.593
  O      -38.472    -103.941     -79.992
  O      -38.726    -104.898     -77.622
  H      -38.720    -103.117     -79.536
  H      -40.659    -105.938     -81.588
  H      -40.169    -104.274     -81.165
  H      -41.790    -104.862     -80.733
  H      -36.176    -113.158     -75.590
  H      -36.531    -112.336     -77.090
  H      -37.730    -113.376     -76.360

 3  4  5  6  7  8  9  10  11  12  23  26  30  31 0
 6-311+G(2d,p)
 ****
 33  35  36  37  38 0
 6-311+G(2d,p)
 ****
 1  2  13  14  15  16  17  18  19  20  21  22  24  25 0
 3-21G
 ****
 27  28  29  32  34  39  40  41  42  43  44  45  46  47  48  49 0
 3-21G
 ****


