%nproc=1
%NoSave
%Mem=1900MB
#P OB98/GEN NMR

erre ene a

0 1
  C       40.665      20.724       2.533
  O       39.655      21.038       3.477
  P       39.431      20.148       4.796
  C       40.594      21.861       6.349
  O       40.621      20.558       5.791
  C       41.134      21.839       7.781
  O       42.519      21.400       7.747
  C       41.097      23.196       8.494
  O       40.825      22.944       9.877
  C       42.511      23.714       8.310
  O       42.863      24.697       9.274
  C       43.310      22.409       8.406
  N       44.634      22.517       7.801
  C       45.743      22.314       8.623
  O       45.606      22.077       9.822
  N       46.996      22.385       8.066
  C       47.133      22.717       6.819
  N       48.390      22.715       6.299
  C       45.991      23.045       5.942
  C       44.786      22.904       6.488
  O       39.303      18.685       4.549
  O       38.163      20.807       5.508
  H       42.692      24.331      10.163
  H       37.303      20.464       5.157
  H       46.158      23.343       4.915
  H       43.892      23.099       5.914
  H       43.406      22.101       9.453
  H       42.610      24.166       7.317
  H       40.328      23.863       8.091
  H       40.569      21.091       8.352
  H       49.122      22.319       6.879
  H       39.557      22.207       6.369
  H       48.542      22.638       5.299
  H       41.175      22.544       5.720
  P       40.232      24.142      10.768
  C       37.793      23.284      10.524
  O       38.699      24.354      10.353
  O       40.938      25.421      10.100
  O       40.537      24.097      12.229
  H       40.991      26.136      10.763
  H       36.801      23.609      10.197
  H       37.734      22.996      11.577
  H       38.096      22.426       9.920
  H       40.643      21.438       1.736
  H       40.493      19.744       2.139
  H       41.622      20.753       3.011

 3  4  5  6  7  8  9  10  11  12  13  23  27  28  29  30  32 0
 6-311+G(2d,p)
 ****
 34  35 0
 6-311+G(2d,p)
 ****
 1  2  14  15  16  17  18  19  20  21  22  24  25  26 0
 3-21G
 ****
 31  33  36  37  38  39  40  41  42  43  44  45  46 0
 3-21G
 ****


