%nproc=1
%NoSave
%Mem=1900MB
#P OB98/GEN NMR

erre ene a

0 1
  C     -251.012    -101.489      -9.288
  O     -249.947    -100.681      -8.829
  H     -250.633    -102.269      -9.954
  H     -251.489    -101.965      -8.428
  H     -251.753    -100.879      -9.811
  P     -249.114     -99.879      -9.942
  C     -247.753    -101.958     -10.705
  O     -248.711    -100.967     -11.052
  C     -246.842    -102.230     -11.896
  O     -247.608    -102.775     -12.995
  C     -246.150    -100.990     -12.453
  O     -245.000    -100.637     -11.704
  C     -245.774    -101.482     -13.841
  O     -244.619    -102.340     -13.757
  C     -247.014    -102.295     -14.231
  N     -247.973     -99.787     -18.587
  C     -246.876    -100.437     -18.144
  N     -246.700    -101.074     -16.969
  C     -247.808    -101.002     -16.216
  C     -248.998    -100.369     -16.531
  C     -249.065     -99.743     -17.789
  N     -250.178     -99.068     -18.240
  N     -249.902    -100.476     -15.490
  C     -249.273    -101.190     -14.578
  N     -248.002    -101.524     -14.965
  O     -247.721     -99.567      -9.217
  O     -249.766     -98.649     -10.480
  H     -244.791    -102.969     -13.031
  H     -247.271     -98.825      -9.661
  H     -246.027    -100.440     -18.822
  H     -249.694    -101.492     -13.628
  H     -246.766    -103.172     -14.842
  H     -245.521    -100.672     -14.527
  H     -246.845    -100.148     -12.547
  H     -246.105    -102.986     -11.597
  H     -248.275    -102.879     -10.429
  H     -250.058     -98.502     -19.066
  H     -250.935     -98.903     -17.592
  H     -247.167    -101.609      -9.851
  P     -244.498     -99.116     -11.802
  C     -242.183     -99.528     -12.916
  O     -243.519     -99.060     -13.072
  O     -243.503     -98.982     -10.555
  O     -245.586     -98.094     -11.774
  H     -243.449     -98.055     -10.254
  H     -241.659     -99.427     -13.843
  H     -242.197    -100.558     -12.625
  H     -241.689     -98.951     -12.162

 6  7  8  9  10  11  12  13  14  15  25  28  32  33  34  35 0
 6-311+G(2d,p)
 ****
 36  39  40 0
 6-311+G(2d,p)
 ****
 1  2  3  4  5  16  17  18  19  20  21  22  23  24 0
 3-21G
 ****
 26  27  29  30  31  37  38  41  42  43  44  45  46  47 0
 3-21G
 ****
 48 0
 3-21G
 ****


