%nproc=1
%NoSave
%Mem=1900MB
#P OB98/GEN NMR

erre ene a

0 1
  C      451.626     334.851    -349.576
  O      453.028     334.581    -349.570
  P      453.732     334.140    -348.207
  C      455.540     335.965    -348.022
  O      455.272     334.581    -348.244
  C      456.899     336.362    -348.619
  O      457.962     335.549    -348.039
  C      456.959     336.159    -350.141
  O      457.807     337.147    -350.746
  C      457.650     334.812    -350.279
  O      458.230     334.653    -351.573
  C      458.656     334.889    -349.125
  N      462.782     331.875    -348.752
  C      462.645     333.165    -349.144
  N      461.516     333.907    -349.196
  C      460.451     333.192    -348.778
  C      460.443     331.875    -348.335
  C      461.679     331.200    -348.347
  N      461.811     329.885    -347.967
  N      459.162     331.480    -347.988
  C      458.410     332.533    -348.255
  N      459.147     333.597    -348.695
  O      453.499     332.722    -347.788
  O      453.105     335.155    -347.135
  H      458.772     333.844    -351.560
  H      452.892     334.674    -346.310
  H      463.557     333.658    -349.460
  H      457.332     332.566    -348.158
  H      459.526     335.507    -349.384
  H      456.928     334.008    -350.121
  H      455.978     336.174    -350.636
  H      457.118     337.400    -348.358
  H      455.526     336.174    -346.952
  H      462.720     329.450    -348.120
  H      460.981     329.333    -347.808
  H      454.729     336.556    -348.456
  P      457.156     338.613    -350.936
  C      457.020     338.625    -353.549
  O      457.634     339.124    -352.380
  O      457.430     339.536    -349.786
  O      455.603     338.269    -351.122
  H      455.416     337.587    -351.789
  H      457.391     339.186    -354.406
  H      455.935     338.740    -353.495
  H      457.271     337.571    -353.684
  H      451.321     335.131    -350.563
  H      451.414     335.650    -348.897
  H      451.093     333.974    -349.273

 3  4  5  6  7  8  9  10  11  12  22  25  29  30  31  32 0
 6-311+G(2d,p)
 ****
 33  36  37 0
 6-311+G(2d,p)
 ****
 1  2  13  14  15  16  17  18  19  20  21  23  24  26 0
 3-21G
 ****
 27  28  34  35  38  39  40  41  42  43  44  45  46  47  48 0
 3-21G
 ****


