%nproc=1
%NoSave
%Mem=1900MB
#P OB98/GEN NMR

erre ene a

0 1
  C     -312.776     262.656     619.408
  O     -312.523     261.947     618.201
  P     -311.475     262.591     617.166
  C     -310.191     260.502     616.303
  O     -311.200     261.471     616.051
  C     -310.455     259.242     615.476
  O     -311.537     258.472     616.047
  C     -310.872     259.517     614.036
  O     -309.767     259.788     613.194
  C     -311.513     258.188     613.656
  O     -310.495     257.232     613.324
  C     -312.212     257.783     614.967
  N     -316.688     256.917     612.777
  C     -315.496     256.240     612.639
  N     -315.476     255.227     611.741
  N     -314.408     256.528     613.308
  C     -314.581     257.572     614.170
  C     -315.721     258.315     614.398
  C     -316.895     257.996     613.627
  O     -317.976     258.581     613.671
  N     -315.499     259.281     615.344
  C     -314.238     259.126     615.679
  N     -313.624     258.125     614.966
  O     -310.107     262.627     618.002
  O     -311.859     263.940     616.654
  H     -310.042     257.571     612.521
  H     -309.473     263.240     617.574
  H     -317.490     256.655     612.225
  H     -313.722     259.719     616.438
  H     -312.125     256.712     615.159
  H     -312.169     258.268     612.793
  H     -316.250     254.991     611.143
  H     -311.630     260.306     613.979
  H     -314.592     254.760     611.570
  H     -309.545     258.622     615.503
  H     -310.184     260.245     617.359
  H     -309.216     260.927     616.042
  P     -310.009     260.843     612.001
  C     -307.713     262.064     611.991
  O     -308.552     261.113     611.375
  O     -310.351     262.195     612.780
  O     -311.081     260.455     611.040
  H     -310.902     262.792     612.225
  H     -306.693     261.931     611.612
  H     -307.705     261.940     613.080
  H     -308.047     263.081     611.748
  H     -313.488     262.116     619.997
  H     -313.167     263.625     619.177
  H     -311.864     262.761     619.958

 3  4  5  6  7  8  9  10  11  12  23  26  30  31 0
 6-311+G(2d,p)
 ****
 33  35  36  37  38 0
 6-311+G(2d,p)
 ****
 1  2  13  14  15  16  17  18  19  20  21  22  24  25 0
 3-21G
 ****
 27  28  29  32  34  39  40  41  42  43  44  45  46  47  48  49 0
 3-21G
 ****


