%nproc=1
%NoSave
%Mem=1900MB
#P OB98/GEN NMR

erre ene a

0 1
  C      441.407     271.128     514.794
  O      441.535     272.467     515.237
  H      441.004     270.523     515.611
  H      442.384     270.725     514.509
  H      440.717     271.072     513.945
  P      442.148     273.553     514.233
  C      444.607     272.864     514.641
  O      443.532     272.940     513.703
  C      445.552     274.054     514.455
  O      446.736     273.884     515.261
  C      446.040     274.255     513.018
  O      445.056     274.944     512.248
  C      447.281     275.090     513.258
  O      446.905     276.451     513.552
  C      447.874     274.429     514.522
  N      452.515     273.238     512.844
  C      451.842     274.446     512.828
  N      452.506     275.483     512.248
  N      450.647     274.629     513.316
  C      450.082     273.492     513.793
  C      450.636     272.220     513.848
  C      451.995     272.057     513.362
  O      452.630     271.003     513.379
  N      449.732     271.306     514.309
  C      448.657     272.014     514.587
  N      448.813     273.348     514.279
  O      442.265     274.951     514.759
  O      441.205     273.475     512.944
  H      447.714     276.921     513.818
  H      440.469     274.117     513.002
  H      453.430     273.152     512.447
  H      447.742     271.622     515.010
  H      448.364     275.145     515.176
  H      447.950     275.112     512.394
  H      453.361     275.374     511.728
  H      446.330     273.309     512.548
  H      452.005     276.365     512.174
  H      445.033     274.955     514.824
  H      445.139     271.925     514.453
  H      444.219     272.855     515.663
  P      444.904     274.700     510.666
  C      447.047     276.080     510.212
  O      446.385     274.834     510.078
  O      443.873     275.558     510.006
  O      444.631     273.132     510.536
  H      443.663     272.891     510.644
  H      448.021     276.015     509.774
  H      447.138     276.326     511.249
  H      446.482     276.840     509.714

 6  7  8  9  10  11  12  13  14  15  26  29  33  34 0
 6-311+G(2d,p)
 ****
 36  38  39  40  41 0
 6-311+G(2d,p)
 ****
 1  2  3  4  5  16  17  18  19  20  21  22  23  24  25 0
 3-21G
 ****
 27  28  30  31  32  35  37  42  43  44  45  46  47 0
 3-21G
 ****
 48  49 0
 3-21G
 ****


