%nproc=1
%NoSave
%Mem=1900MB
#P OB98/GEN NMR

erre ene a

0 1
  C     -898.971     195.682    -862.666
  O     -898.221     196.098    -861.535
  P     -896.639     195.789    -861.564
  C     -895.187     193.654    -861.849
  O     -896.476     194.195    -861.690
  C     -895.135     192.219    -861.324
  O     -896.143     191.408    -861.998
  C     -893.821     191.500    -861.574
  O     -892.821     191.926    -860.671
  C     -894.267     190.040    -861.399
  O     -894.377     189.731    -860.008
  C     -895.660     190.060    -862.035
  N     -894.896     186.042    -865.133
  C     -894.784     186.163    -863.796
  N     -894.990     187.288    -863.046
  C     -895.325     188.322    -863.829
  C     -895.467     188.355    -865.209
  C     -895.222     187.137    -865.867
  N     -895.319     186.993    -867.258
  N     -895.800     189.605    -865.663
  C     -895.907     190.320    -864.575
  N     -895.664     189.598    -863.438
  O     -896.186     196.111    -860.045
  O     -895.864     196.606    -862.573
  H     -894.679     188.790    -859.945
  H     -895.284     196.471    -860.052
  H     -894.515     185.292    -863.241
  H     -896.150     191.390    -864.545
  H     -896.392     189.420    -861.498
  H     -893.574     189.321    -861.857
  H     -893.461     191.655    -862.617
  H     -895.376     192.229    -860.242
  H     -894.458     194.253    -861.285
  H     -895.005     186.117    -867.637
  H     -895.421     187.849    -867.800
  H     -894.886     193.724    -862.896
  P     -891.314     192.013    -861.192
  C     -889.524     190.215    -861.722
  O     -890.872     190.459    -861.333
  O     -890.514     192.496    -859.896
  O     -891.115     192.844    -862.423
  H     -890.766     191.946    -859.120
  H     -889.342     189.131    -861.721
  H     -888.843     190.713    -861.003
  H     -889.343     190.605    -862.737
  H     -900.000     195.942    -862.527
  H     -898.884     194.622    -862.782
  H     -898.596     196.169    -863.542

 3  4  5  6  7  8  9  10  11  12  22  25  29  30  31  32 0
 6-311+G(2d,p)
 ****
 33  36  37 0
 6-311+G(2d,p)
 ****
 1  2  13  14  15  16  17  18  19  20  21  23  24  26 0
 3-21G
 ****
 27  28  34  35  38  39  40  41  42  43  44  45  46  47  48 0
 3-21G
 ****


