%nproc=1
%NoSave
%Mem=1900MB
#P OB98/GEN NMR

erre ene a

0 1
  C      858.091    -896.860     212.190
  O      858.236    -896.820     210.775
  H      858.581    -897.750     212.590
  H      858.566    -895.980     212.618
  H      857.030    -896.860     212.450
  P      857.592    -898.030     209.947
  C      856.126    -896.400     208.558
  O      856.162    -897.510     209.449
  C      855.711    -896.900     207.167
  O      854.367    -897.440     207.203
  C      855.660    -895.800     206.101
  O      856.968    -895.520     205.563
  C      854.774    -896.440     205.052
  O      855.522    -897.430     204.306
  C      853.714    -897.130     205.935
  N      848.656    -896.840     205.371
  C      849.526    -897.780     204.983
  N      850.868    -897.760     205.190
  C      851.261    -896.670     205.816
  C      850.474    -895.600     206.240
  C      849.096    -895.720     206.006
  N      848.181    -894.760     206.367
  N      851.251    -894.620     206.835
  C      852.469    -895.090     206.785
  N      852.540    -896.310     206.168
  O      857.212    -899.100     211.072
  O      858.456    -898.610     208.872
  H      854.926    -897.750     203.595
  H      857.127    -900.000     210.676
  H      849.122    -898.640     204.498
  H      853.346    -894.580     207.190
  H      853.369    -898.080     205.518
  H      854.370    -895.730     204.337
  H      855.179    -894.890     206.480
  H      856.388    -897.700     206.858
  H      857.129    -895.960     208.491
  H      847.244    -894.850     205.980
  H      848.528    -893.860     206.704
  H      855.413    -895.660     208.915
  P      857.317    -893.980     205.260
  C      858.825    -893.880     207.403
  O      857.715    -893.330     206.671
  O      855.906    -893.340     204.947
  O      858.308    -893.780     204.159
  H      855.989    -892.560     204.339
  H      858.956    -893.336     208.315
  H      859.714    -893.805     206.812
  H      858.631    -894.908     207.626

 6  7  8  9  10  11  12  13  14  15  25  28  32  33  34  35 0
 6-311+G(2d,p)
 ****
 36  39  40 0
 6-311+G(2d,p)
 ****
 1  2  3  4  5  16  17  18  19  20  21  22  23  24 0
 3-21G
 ****
 26  27  29  30  31  37  38  41  42  43  44  45  46  47 0
 3-21G
 ****
 48 0
 3-21G
 ****


