%nproc=1
%NoSave
%Mem=1900MB
#P OB98/GEN NMR

erre ene a

0 1
  C      319.225    -550.354    1146.366
  O      319.609    -550.284    1144.993
  P      319.271    -548.889    1144.247
  C      321.546    -547.853    1143.509
  O      320.492    -547.881    1144.479
  C      322.715    -548.747    1143.965
  O      322.341    -550.121    1144.158
  C      323.897    -548.757    1142.959
  O      324.669    -547.583    1143.101
  C      324.609    -550.057    1143.416
  O      325.505    -549.781    1144.504
  C      323.487    -550.941    1143.841
  N      324.669    -555.402    1141.728
  C      325.400    -554.643    1142.612
  N      326.596    -555.139    1142.999
  N      324.977    -553.489    1143.065
  C      323.774    -553.130    1142.593
  C      322.951    -553.838    1141.739
  C      323.394    -555.127    1141.264
  O      322.805    -555.845    1140.485
  N      321.747    -553.181    1141.550
  C      321.895    -551.998    1142.163
  N      323.078    -551.960    1142.868
  O      318.061    -548.284    1145.107
  O      318.882    -549.079    1142.809
  H      325.007    -549.492    1145.276
  H      317.236    -548.320    1144.583
  H      325.041    -556.301    1141.415
  H      321.198    -551.219    1142.116
  H      323.748    -551.491    1144.774
  H      325.226    -550.418    1142.587
  H      326.992    -555.982    1142.695
  H      323.504    -548.882    1141.948
  H      327.164    -554.552    1143.657
  H      323.062    -548.366    1144.939
  H      321.893    -546.831    1143.356
  H      321.137    -548.229    1142.541
  P      324.800    -546.606    1141.836
  C      324.043    -544.292    1142.807
  O      323.711    -545.399    1142.031
  O      324.229    -547.495    1140.632
  O      326.195    -546.171    1141.558
  H      324.802    -547.437    1139.883
  H      323.522    -543.444    1142.413
  H      325.143    -544.079    1142.736
  H      323.758    -544.498    1143.824
  H      319.492    -551.311    1146.763
  H      318.167    -550.216    1146.448
  H      319.728    -549.587    1146.917

 3  4  5  6  7  8  9  10  11  12  23  26  30  31 0
 6-311+G(2d,p)
 ****
 33  35  36  37  38 0
 6-311+G(2d,p)
 ****
 1  2  13  14  15  16  17  18  19  20  21  22  24  25 0
 3-21G
 ****
 27  28  29  32  34  39  40  41  42  43  44  45  46  47  48  49 0
 3-21G
 ****


