%nproc=1
%NoSave
%Mem=1900MB
#P OB98/GEN NMR

erre ene a

0 1
  C      122.481    -417.431     187.821
  O      123.117    -416.576     186.889
  H      121.797    -418.092     187.282
  H      121.907    -416.837     188.538
  H      123.220    -418.040     188.349
  P      124.327    -415.689     187.448
  C      125.462    -416.006     185.105
  O      125.139    -415.130     186.177
  C      125.743    -415.203     183.838
  O      124.519    -414.691     183.273
  C      126.584    -413.958     184.062
  O      127.937    -414.254     184.322
  C      126.364    -413.228     182.742
  O      127.260    -413.694     181.726
  C      124.901    -413.601     182.400
  N      124.012    -412.460     182.517
  C      124.154    -411.488     181.519
  O      124.976    -411.645     180.614
  N      123.391    -410.352     181.596
  C      122.579    -410.188     182.593
  N      121.877    -409.022     182.627
  C      122.402    -411.187     183.667
  C      123.144    -412.289     183.568
  O      125.314    -416.795     188.053
  O      123.931    -414.629     188.419
  H      128.114    -413.870     182.174
  H      125.491    -417.533     187.447
  H      121.702    -411.008     184.471
  H      123.076    -413.074     184.311
  H      124.835    -413.985     181.375
  H      126.531    -412.153     182.845
  H      126.148    -413.348     184.866
  H      126.212    -415.875     183.106
  H      122.069    -408.344     181.901
  H      124.646    -416.717     184.931
  H      121.276    -408.752     183.393
  H      126.345    -416.580     185.399
  P      128.729    -413.552     185.523
  C      129.814    -415.699     186.446
  O      130.036    -414.448     185.805
  O      127.916    -413.256     186.737
  O      129.361    -412.254     184.829
  H      129.960    -412.437     184.086
  H      130.749    -416.202     186.580
  H      129.169    -416.301     185.840
  H      129.357    -415.535     187.400

 6  7  8  9  10  11  12  13  14  15  16  26  30  31  32  33  35 0
 6-311+G(2d,p)
 ****
 37  38 0
 6-311+G(2d,p)
 ****
 1  2  3  4  5  17  18  19  20  21  22  23  24  25 0
 3-21G
 ****
 27  28  29  34  36  39  40  41  42  43  44  45  46 0
 3-21G
 ****


