%nproc=1
%NoSave
%Mem=1900MB
#P OB98/GEN NMR

erre ene a

0 1
  C       27.427    -347.600      84.960
  O       28.091    -348.663      85.657
  P       27.961    -350.138      85.050
  C       30.047    -350.120      83.463
  O       28.633    -350.071      83.595
  C       30.463    -351.408      82.751
  O       29.918    -351.446      81.411
  C       31.963    -351.572      82.575
  O       32.583    -351.934      83.808
  C       32.017    -352.642      81.492
  O       31.813    -353.944      82.064
  C       30.806    -352.258      80.612
  N       31.191    -351.581      79.379
  C       31.777    -352.395      78.397
  O       31.989    -353.591      78.560
  N       32.141    -351.760      77.242
  C       32.001    -350.423      76.977
  O       32.326    -349.912      75.908
  C       31.419    -349.618      78.062
  C       31.045    -350.223      79.191
  O       26.393    -350.217      84.760
  O       28.493    -351.193      85.962
  H       26.019    -349.368      84.474
  H       30.975    -353.894      82.573
  H       32.557    -352.327      76.521
  H       31.315    -348.554      77.896
  H       30.627    -349.642      80.007
  H       30.239    -353.156      80.340
  H       32.974    -352.662      80.974
  H       32.401    -350.637      82.201
  H       30.045    -352.251      83.312
  H       30.514    -350.097      84.453
  H       30.387    -349.233      82.922
  P       34.143    -352.312      83.742
  C       35.098    -349.863      83.661
  O       34.876    -351.095      82.996
  O       34.145    -353.480      82.652
  O       34.732    -352.691      85.066
  H       33.591    -353.289      81.887
  H       35.877    -349.326      83.138
  H       35.400    -350.030      84.698
  H       34.172    -349.274      83.645
  H       27.597    -346.676      85.473
  H       26.376    -347.799      84.923
  H       27.812    -347.531      83.964

 3  4  5  6  7  8  9  10  11  12  13  24  28  29  30  31  32 0
 6-311+G(2d,p)
 ****
 33  34 0
 6-311+G(2d,p)
 ****
 1  2  14  15  16  17  18  19  20  21  22  23  25  26  27 0
 3-21G
 ****
 35  36  37  38  39  40  41  42  43  44  45 0
 3-21G
 ****


