%nproc=1
%NoSave
%Mem=1900MB
#P OB98/GEN NMR

erre ene a

0 1
  C      -34.221      36.955     -21.854
  O      -35.401      36.656     -22.579
  P      -36.073      35.213     -22.386
  C      -34.582      34.282     -24.338
  O      -35.050      34.147     -23.009
  C      -33.565      33.182     -24.658
  O      -32.454      33.280     -23.725
  C      -34.121      31.755     -24.561
  O      -33.475      30.977     -25.577
  C      -33.669      31.311     -23.181
  O      -33.629      29.900     -23.045
  C      -32.299      31.993     -23.096
  N      -31.809      32.147     -21.726
  C      -31.147      31.068     -21.148
  O      -30.970      29.990     -21.712
  N      -30.710      31.259     -19.862
  C      -30.922      32.368     -19.096
  O      -30.524      32.478     -17.942
  C      -31.669      33.456     -19.743
  C      -32.061      33.301     -21.009
  O      -37.263      35.281     -23.452
  O      -36.496      34.930     -20.985
  H      -37.027      35.777     -24.254
  H      -33.116      29.539     -23.791
  H      -30.194      30.504     -19.435
  H      -31.871      34.347     -19.162
  H      -32.614      34.088     -21.508
  H      -31.565      31.433     -23.688
  H      -34.360      31.706     -22.427
  H      -35.205      31.718     -24.697
  H      -33.163      33.368     -25.662
  H      -34.101      35.256     -24.457
  H      -35.432      34.240     -25.027
  P      -34.330      29.831     -26.315
  C      -33.054      27.900     -25.091
  O      -34.282      28.526     -25.388
  O      -33.328      29.456     -27.511
  O      -35.674      30.263     -26.800
  H      -32.417      29.312     -27.209
  H      -33.185      27.268     -24.209
  H      -32.272      28.634     -24.880
  H      -32.749      27.272     -25.932
  H      -33.899      37.948     -22.090
  H      -33.453      36.259     -22.119
  H      -34.419      36.884     -20.805

 3  4  5  6  7  8  9  10  11  12  13  24  28  29  30  31  32 0
 6-311+G(2d,p)
 ****
 33  34 0
 6-311+G(2d,p)
 ****
 1  2  14  15  16  17  18  19  20  21  22  23  25  26  27 0
 3-21G
 ****
 35  36  37  38  39  40  41  42  43  44  45 0
 3-21G
 ****


