%nproc=1
%NoSave
%Mem=1900MB
#P OB98/GEN NMR

erre ene a

0 1
  C      -65.897      67.811      43.950
  O      -64.506      67.753      43.685
  P      -63.918      68.033      42.215
  C      -62.981      70.279      43.097
  O      -63.770      69.627      42.115
  C      -61.554      70.487      42.581
  O      -61.613      71.272      41.360
  C      -60.628      71.221      43.559
  O      -59.316      70.670      43.398
  C      -60.674      72.653      43.058
  O      -59.549      73.415      43.475
  C      -60.769      72.426      41.545
  N      -61.301      73.586      40.837
  C      -60.427      74.311      40.026
  O      -59.242      73.994      39.932
  N      -60.916      75.389      39.330
  C      -62.147      75.764      39.498
  N      -62.601      76.801      38.742
  C      -63.076      75.092      40.430
  C      -62.596      74.010      41.039
  O      -64.688      67.408      41.103
  O      -62.394      67.564      42.303
  H      -59.624      74.309      43.089
  H      -62.279      66.594      42.139
  H      -64.085      75.459      40.556
  H      -63.211      73.440      41.720
  H      -59.784      72.166      41.140
  H      -61.575      73.146      43.441
  H      -60.941      71.109      44.601
  H      -61.135      69.507      42.320
  H      -61.992      77.121      37.997
  H      -62.945      69.645      43.987
  H      -63.593      76.932      38.577
  H      -63.444      71.234      43.369
  P      -58.320      70.694      44.658
  C      -58.014      68.116      44.731
  O      -58.437      69.282      45.407
  O      -59.099      71.672      45.667
  O      -56.943      71.215      44.408
  H      -58.453      72.083      46.273
  H      -58.160      67.256      45.392
  H      -56.952      68.184      44.478
  H      -58.604      67.964      43.824
  H      -66.073      67.594      44.983
  H      -66.406      67.092      43.343
  H      -66.263      68.791      43.724

 3  4  5  6  7  8  9  10  11  12  13  23  27  28  29  30  32 0
 6-311+G(2d,p)
 ****
 34  35 0
 6-311+G(2d,p)
 ****
 1  2  14  15  16  17  18  19  20  21  22  24  25  26 0
 3-21G
 ****
 31  33  36  37  38  39  40  41  42  43  44  45  46 0
 3-21G
 ****


