%nproc=1
%NoSave
%Mem=1900MB
#P OB98/GEN NMR

erre ene a

0 1
  C      -17.307      19.872      -1.382
  O      -15.938      19.929      -1.775
  P      -15.618      20.301      -3.302
  C      -13.584      21.835      -2.675
  O      -14.075      20.718      -3.396
  C      -12.250      22.331      -3.262
  O      -11.279      21.255      -3.163
  C      -12.286      22.706      -4.740
  O      -11.146      23.525      -5.035
  C      -12.122      21.356      -5.408
  O      -11.715      21.487      -6.769
  C      -11.118      20.642      -4.473
  N      -11.329      19.183      -4.381
  C      -11.096      18.406      -5.515
  O      -10.726      18.861      -6.599
  N      -11.342      17.064      -5.388
  C      -11.749      16.428      -4.251
  O      -12.038      15.236      -4.216
  C      -11.843      17.269      -3.050
  C      -11.645      18.584      -3.169
  O      -16.414      21.675      -3.523
  O      -16.033      19.250      -4.277
  H      -10.854      21.972      -6.755
  H      -17.215      21.516      -4.061
  H      -11.244      16.499      -6.222
  H      -12.097      16.788      -2.114
  H      -11.729      19.224      -2.292
  H      -10.086      20.803      -4.808
  H      -13.079      20.824      -5.403
  H      -13.201      23.215      -5.060
  H      -11.880      23.165      -2.659
  H      -13.466      21.573      -1.620
  H      -14.321      22.648      -2.712
  P      -11.401      25.053      -5.438
  C       -9.137      25.717      -4.415
  O       -9.952      25.728      -5.573
  O      -12.387      25.796      -4.597
  O      -11.882      24.948      -6.968
  H      -12.342      25.767      -7.222
  H       -8.087      25.699      -4.724
  H       -9.337      24.838      -3.791
  H       -9.323      26.623      -3.831
  H      -17.370      19.615      -0.345
  H      -17.815      19.132      -1.965
  H      -17.764      20.826      -1.541

 3  4  5  6  7  8  9  10  11  12  13  23  28  29  30  31  32 0
 6-311+G(2d,p)
 ****
 33  34 0
 6-311+G(2d,p)
 ****
 1  2  14  15  16  17  18  19  20  21  22  24  25  26  27 0
 3-21G
 ****
 35  36  37  38  39  40  41  42  43  44  45 0
 3-21G
 ****


