%nproc=1
%NoSave
%Mem=1900MB
#P OB98/GEN NMR

erre ene a

0 1
  C      -67.570    -817.422    -511.089
  O      -66.513    -817.576    -510.165
  H      -67.625    -818.317    -511.714
  H      -67.398    -816.555    -511.732
  H      -68.524    -817.306    -510.561
  P      -66.154    -816.346    -509.204
  C      -66.925    -815.586    -506.856
  O      -66.833    -816.655    -507.783
  C      -67.498    -816.066    -505.516
  O      -68.771    -816.731    -505.759
  C      -66.594    -817.080    -504.789
  O      -66.819    -816.923    -503.382
  C      -67.171    -818.400    -505.275
  O      -66.720    -819.479    -504.490
  C      -68.664    -818.072    -505.245
  N      -69.454    -819.019    -506.018
  C      -70.571    -819.564    -505.383
  O      -70.831    -819.249    -504.218
  N      -71.346    -820.474    -506.058
  C      -71.000    -820.857    -507.244
  N      -71.797    -821.770    -507.857
  C      -69.794    -820.347    -507.935
  C      -69.079    -819.433    -507.276
  O      -66.439    -814.987    -509.754
  O      -64.592    -816.534    -508.903
  H      -67.304    -819.616    -503.712
  H      -64.075    -815.886    -509.419
  H      -69.531    -820.713    -508.920
  H      -68.178    -819.008    -507.702
  H      -69.044    -818.063    -504.213
  H      -66.846    -818.603    -506.302
  H      -65.533    -816.953    -505.019
  H      -67.706    -815.199    -504.883
  H      -72.607    -822.098    -507.340
  H      -67.582    -814.825    -507.291
  H      -71.612    -822.155    -508.768
  H      -65.938    -815.140    -506.693
  P      -66.059    -815.818    -502.504
  C      -66.049    -813.234    -502.523
  O      -66.836    -814.419    -502.611
  O      -64.589    -815.718    -502.779
  O      -66.308    -816.255    -500.977
  H      -65.543    -815.990    -500.440
  H      -66.684    -812.377    -502.608
  H      -65.329    -813.224    -503.314
  H      -65.543    -813.211    -501.580

 6  7  8  9  10  11  12  13  14  15  16  26  30  31  32  33  35 0
 6-311+G(2d,p)
 ****
 37  38 0
 6-311+G(2d,p)
 ****
 1  2  3  4  5  17  18  19  20  21  22  23  24  25 0
 3-21G
 ****
 27  28  29  34  36  39  40  41  42  43  44  45  46 0
 3-21G
 ****


