%nproc=1
%NoSave
%Mem=1900MB
#P OB98/GEN NMR

erre ene a

0 1
  C      317.762     547.890     339.758
  O      317.269     549.186     339.434
  P      315.693     549.465     339.532
  C      313.731     549.960     337.934
  O      315.148     549.869     338.080
  C      313.349     550.434     336.514
  O      313.794     551.811     336.317
  C      313.971     549.568     335.403
  O      313.021     549.125     334.445
  C      315.108     550.437     334.870
  O      315.466     550.101     333.536
  C      314.564     551.855     335.114
  N      315.665     552.831     335.188
  C      315.830     553.680     334.100
  O      315.155     553.600     333.075
  N      316.835     554.609     334.197
  C      317.721     554.717     335.228
  O      318.639     555.537     335.255
  C      317.554     553.756     336.332
  C      316.544     552.870     336.252
  O      315.258     550.372     340.652
  O      315.074     547.997     339.734
  H      315.885     549.210     333.544
  H      314.330     548.064     340.375
  H      316.939     555.239     333.413
  H      318.244     553.785     337.145
  H      316.396     552.137     337.042
  H      313.912     552.173     334.287
  H      315.984     550.284     335.504
  H      314.394     548.645     335.815
  H      312.257     550.423     336.443
  H      313.330     550.674     338.659
  H      313.269     548.997     338.177
  P      312.246     547.719     334.512
  C      312.436     545.413     333.340
  O      313.003     546.688     333.541
  O      310.767     547.782     334.332
  O      312.602     547.182     335.988
  H      311.809     546.768     336.372
  H      313.215     544.737     332.988
  H      311.644     545.485     332.580
  H      312.005     545.009     334.272
  H      318.826     547.874     339.641
  H      317.320     547.167     339.105
  H      317.511     547.656     340.771

 3  4  5  6  7  8  9  10  11  12  13  23  28  29  30  31  32 0
 6-311+G(2d,p)
 ****
 33  34 0
 6-311+G(2d,p)
 ****
 1  2  14  15  16  17  18  19  20  21  22  24  25  26  27 0
 3-21G
 ****
 35  36  37  38  39  40  41  42  43  44  45 0
 3-21G
 ****


