%nproc=1
%NoSave
%Mem=1900MB
#P OB98/GEN NMR

erre ene a

0 1
  C     -567.592     807.083     299.516
  O     -567.248     805.707     299.502
  H     -566.674     807.671     299.560
  H     -568.207     807.322     300.390
  H     -568.134     807.340     298.606
  P     -568.422     804.634     299.725
  C     -568.907     804.538     297.190
  O     -569.427     804.834     298.481
  C     -569.505     803.246     296.631
  O     -570.938     803.367     296.487
  C     -569.004     802.881     295.238
  O     -567.644     802.530     295.176
  C     -570.056     801.878     294.787
  O     -569.802     800.565     295.282
  C     -571.342     802.462     295.437
  N     -572.209     803.114     294.464
  C     -572.856     802.275     293.566
  O     -572.709     801.046     293.547
  N     -573.664     802.894     292.655
  C     -573.846     804.227     292.524
  O     -574.574     804.730     291.667
  C     -573.107     805.071     293.477
  C     -572.333     804.490     294.398
  O     -569.098     804.672     301.068
  O     -567.726     803.232     299.398
  H     -569.688     800.640     296.245
  H     -568.268     802.474     299.734
  H     -574.152     802.294     292.002
  H     -573.216     806.151     293.400
  H     -571.781     805.082     295.108
  H     -571.911     801.661     295.923
  H     -570.107     801.808     293.696
  H     -569.118     803.766     294.593
  H     -569.304     802.444     297.345
  H     -567.817     804.423     297.287
  H     -569.116     805.379     296.512
  P     -566.718     802.815     293.912
  C     -565.511     804.835     295.071
  O     -566.248     804.352     293.950
  O     -567.171     802.253     292.598
  O     -565.356     802.044     294.326
  H     -564.966     801.686     293.508
  H     -565.283     805.871     294.929
  H     -564.601     804.280     295.166
  H     -566.095     804.717     295.960

 6  7  8  9  10  11  12  13  14  15  16  26  31  32  33  34  35 0
 6-311+G(2d,p)
 ****
 36  37 0
 6-311+G(2d,p)
 ****
 1  2  3  4  5  17  18  19  20  21  22  23  24  25 0
 3-21G
 ****
 27  28  29  30  38  39  40  41  42  43  44  45 0
 3-21G
 ****


