%nproc=1
%NoSave
%Mem=1900MB
#P OB98/GEN NMR

erre ene a

0 1
  C     -199.391     380.541     532.126
  O     -199.947     379.231     532.225
  P     -199.838     378.507     533.652
  C     -202.402     378.704     534.044
  O     -201.095     378.988     534.537
  C     -203.468     379.307     534.972
  O     -203.453     380.745     534.971
  C     -204.886     378.905     534.591
  O     -205.168     377.593     535.057
  C     -205.705     379.989     535.291
  O     -205.947     379.645     536.662
  C     -204.797     381.228     535.198
  N     -207.065     385.645     534.145
  C     -207.025     384.922     535.324
  N     -207.661     385.483     536.386
  N     -206.420     383.776     535.449
  C     -205.824     383.347     534.318
  C     -205.785     383.980     533.093
  C     -206.459     385.256     532.963
  O     -206.510     385.937     531.945
  N     -205.034     383.263     532.183
  C     -204.749     382.143     532.825
  N     -205.144     382.169     534.135
  O     -198.584     379.239     534.345
  O     -199.644     377.032     533.561
  H     -206.551     378.880     536.701
  H     -197.839     378.616     534.399
  H     -207.555     386.508     534.096
  H     -204.229     381.301     532.388
  H     -204.787     381.807     536.121
  H     -206.690     380.113     534.835
  H     -208.146     386.360     536.357
  H     -205.026     378.975     533.509
  H     -207.627     384.964     537.268
  H     -203.251     378.957     535.994
  H     -202.558     377.626     533.970
  H     -202.505     379.112     533.037
  P     -205.284     376.424     533.980
  C     -203.033     375.399     534.761
  O     -203.809     375.904     533.680
  O     -205.697     377.206     532.640
  O     -206.285     375.358     534.303
  H     -206.405     376.708     532.174
  H     -202.330     374.642     534.355
  H     -203.653     374.942     535.524
  H     -202.452     376.221     535.187
  H     -199.527     380.912     531.132
  H     -198.346     380.503     532.353
  H     -199.883     381.191     532.819

 3  4  5  6  7  8  9  10  11  12  23  26  30  31 0
 6-311+G(2d,p)
 ****
 33  35  36  37  38 0
 6-311+G(2d,p)
 ****
 1  2  13  14  15  16  17  18  19  20  21  22  24  25 0
 3-21G
 ****
 27  28  29  32  34  39  40  41  42  43  44  45  46  47  48  49 0
 3-21G
 ****


