%nproc=1
%NoSave
%Mem=1900MB
#P OB98/GEN NMR

erre ene a

0 1
  C      100.696    -773.399     869.573
  O      100.325    -772.071     869.183
  P      100.245    -771.739     867.615
  C       98.111    -770.254     867.401
  O       98.704    -771.537     867.209
  C       97.255    -770.247     868.672
  O       98.045    -770.535     869.854
  C       96.597    -768.902     868.952
  O       95.404    -768.753     868.206
  C       96.269    -769.045     870.440
  O       95.076    -769.825     870.605
  C       97.492    -769.806     870.970
  N       98.800    -766.903     874.989
  C       97.677    -767.614     874.703
  N       97.405    -768.340     873.604
  C       98.426    -768.320     872.750
  C       99.634    -767.647     872.891
  C       99.805    -766.912     874.072
  N      100.947    -766.205     874.359
  N      100.444    -767.857     871.790
  C       99.740    -768.641     871.005
  N       98.515    -768.954     871.529
  O      100.624    -773.134     866.931
  O      101.172    -770.649     867.183
  H       94.899    -769.874     871.566
  H      101.116    -772.975     866.107
  H       96.900    -767.579     875.467
  H      100.081    -769.025     870.051
  H       97.217    -770.541     871.737
  H       96.085    -768.074     870.912
  H       97.297    -768.072     868.793
  H       96.486    -771.022     868.575
  H       97.493    -770.002     866.531
  H      101.016    -765.724     875.231
  H      101.709    -766.227     873.684
  H       98.902    -769.502     867.450
  P       95.453    -767.757     866.932
  C       93.944    -768.966     865.208
  O       95.256    -768.691     865.655
  O       96.994    -767.335     866.882
  O       94.549    -766.578     867.036
  H       97.092    -766.433     866.508
  H       94.000    -769.341     864.172
  H       93.331    -768.060     865.213
  H       93.483    -769.724     865.830
  H      100.706    -773.467     870.641
  H      101.670    -773.624     869.192
  H       99.989    -774.098     869.177

 3  4  5  6  7  8  9  10  11  12  22  25  29  30  31  32 0
 6-311+G(2d,p)
 ****
 33  36  37 0
 6-311+G(2d,p)
 ****
 1  2  13  14  15  16  17  18  19  20  21  23  24  26 0
 3-21G
 ****
 27  28  34  35  38  39  40  41  42  43  44  45  46  47  48 0
 3-21G
 ****


