%nproc=1
%NoSave
%Mem=1900MB
#P OB98/GEN NMR

erre ene a

0 1
  C       14.204      25.518      35.846
  O       14.830      26.669      35.264
  P       14.339      28.115      35.745
  C       12.418      29.757      35.135
  O       12.983      28.466      34.967
  C       10.989      29.787      34.586
  O       10.968      29.688      33.144
  C       10.115      28.648      35.093
  O        9.569      28.933      36.374
  C        9.009      28.640      34.050
  O        8.056      29.682      34.339
  C        9.777      28.957      32.761
  N        8.417      25.809      29.044
  C        7.788      26.939      29.527
  N        6.629      27.287      28.925
  N        8.253      27.664      30.511
  C        9.427      27.208      31.003
  C       10.146      26.102      30.611
  C        9.614      25.299      29.532
  O       10.119      24.281      29.072
  N       11.287      25.958      31.354
  C       11.272      26.985      32.182
  N       10.154      27.765      32.020
  O       15.403      29.098      35.061
  O       14.302      28.289      37.228
  H        7.619      29.436      35.177
  H       15.494      29.910      35.592
  H        8.012      25.284      28.288
  H       12.041      27.206      32.910
  H        9.203      29.594      32.078
  H        8.453      27.698      34.040
  H        6.241      26.804      28.131
  H       10.657      27.694      35.077
  H        6.172      28.132      29.244
  H       10.533      30.744      34.874
  H       13.026      30.509      34.625
  H       12.445      30.023      36.195
  P        9.933      27.942      37.581
  C        9.260      25.514      38.207
  O        9.176      26.567      37.268
  O        9.118      28.565      38.809
  O       11.389      27.834      37.881
  H        9.596      28.400      39.643
  H        8.562      24.728      37.913
  H        8.994      25.864      39.207
  H       10.272      25.100      38.216
  H       14.633      24.630      35.430
  H       13.155      25.539      35.637
  H       14.357      25.526      36.905

 3  4  5  6  7  8  9  10  11  12  23  26  30  31 0
 6-311+G(2d,p)
 ****
 33  35  36  37  38 0
 6-311+G(2d,p)
 ****
 1  2  13  14  15  16  17  18  19  20  21  22  24  25 0
 3-21G
 ****
 27  28  29  32  34  39  40  41  42  43  44  45  46  47  48  49 0
 3-21G
 ****


