%nproc=1
%NoSave
%Mem=1900MB
#P OB98/GEN NMR

erre ene a

0 1
  C      -85.307      94.207     387.724
  O      -83.893      94.271     387.679
  H      -85.704      94.550     386.764
  H      -85.701      94.856     388.510
  H      -85.633      93.178     387.893
  P      -83.078      93.969     389.026
  C      -82.835      96.470     389.644
  O      -83.381      95.202     389.999
  C      -83.278      97.532     390.647
  O      -84.710      97.687     390.612
  C      -82.934      97.178     392.089
  O      -81.558      97.381     392.346
  C      -83.884      98.091     392.841
  O      -83.375      99.427     392.914
  C      -85.147      98.024     391.950
  N      -86.133      97.066     392.437
  C      -86.913      97.486     393.523
  O      -86.758      98.605     394.005
  N      -87.839      96.610     394.037
  C      -87.985      95.434     393.513
  N      -88.916      94.617     394.072
  C      -87.190      94.958     392.363
  C      -86.291      95.815     391.884
  O      -81.622      93.643     388.876
  O      -83.896      92.764     389.698
  H      -83.960      99.901     393.538
  H      -83.555      91.906     389.389
  H      -87.350      93.968     391.954
  H      -85.666      95.545     391.038
  H      -85.625      99.009     391.888
  H      -84.048      97.743     393.861
  H      -83.220      96.140     392.301
  H      -82.828      98.491     390.361
  H      -89.427      94.983     394.866
  H      -83.206      96.715     388.645
  H      -89.176      93.717     393.696
  H      -81.739      96.421     389.606
  P      -80.823      96.588     393.530
  C      -81.133      98.585     395.139
  O      -81.416      97.207     394.889
  O      -79.334      96.544     393.442
  O      -81.505      95.134     393.472
  H      -81.178      94.614     392.703
  H      -81.578      98.878     396.067
  H      -81.535      99.181     394.347
  H      -80.074      98.728     395.191

 6  7  8  9  10  11  12  13  14  15  16  26  30  31  32  33  35 0
 6-311+G(2d,p)
 ****
 37  38 0
 6-311+G(2d,p)
 ****
 1  2  3  4  5  17  18  19  20  21  22  23  24  25 0
 3-21G
 ****
 27  28  29  34  36  39  40  41  42  43  44  45  46 0
 3-21G
 ****


