%nproc=1
%NoSave
%Mem=1900MB
#P OB98/GEN NMR

erre ene a

0 1
  C      -55.291     181.675     129.795
  O      -55.957     181.157     128.665
  H      -55.783     182.605     130.094
  H      -54.251     181.894     129.539
  H      -55.324     180.976     130.634
  P      -55.758     179.614     128.295
  C      -55.588     179.279     125.742
  O      -56.450     179.348     126.871
  C      -56.337     179.561     124.440
  O      -57.237     178.468     124.152
  C      -57.193     180.829     124.517
  O      -56.504     182.023     124.191
  C      -58.289     180.532     123.497
  O      -57.901     180.949     122.178
  C      -58.427     179.007     123.559
  N      -63.414     177.878     123.474
  C      -62.641     178.466     122.489
  N      -63.292     178.826     121.363
  N      -61.359     178.688     122.617
  C      -60.870     178.365     123.836
  C      -61.541     177.797     124.896
  C      -62.945     177.486     124.720
  O      -63.667     176.953     125.554
  N      -60.724     177.650     125.991
  C      -59.589     178.207     125.618
  N      -59.604     178.582     124.295
  O      -56.749     178.859     129.306
  O      -54.361     179.092     128.438
  H      -57.147     180.396     121.895
  H      -56.383     177.983     129.527
  H      -64.389     177.707     123.308
  H      -58.713     178.322     126.249
  H      -58.508     178.572     122.554
  H      -59.205     181.074     123.742
  H      -64.290     178.757     121.246
  H      -57.660     180.920     125.502
  H      -62.804     179.428     120.697
  H      -55.619     179.611     123.612
  H      -55.178     178.268     125.726
  H      -54.751     179.972     125.860
  P      -56.073     183.059     125.328
  C      -57.448     184.918     124.083
  O      -56.272     184.538     124.765
  O      -54.483     182.896     125.383
  O      -56.705     182.845     126.664
  H      -54.222     182.312     126.120
  H      -57.376     185.945     123.793
  H      -58.292     184.788     124.728
  H      -57.568     184.309     123.212

 6  7  8  9  10  11  12  13  14  15  26  29  33  34 0
 6-311+G(2d,p)
 ****
 36  38  39  40  41 0
 6-311+G(2d,p)
 ****
 1  2  3  4  5  16  17  18  19  20  21  22  23  24  25 0
 3-21G
 ****
 27  28  30  31  32  35  37  42  43  44  45  46  47 0
 3-21G
 ****
 48  49 0
 3-21G
 ****


