%nproc=1
%NoSave
%Mem=1900MB
#P OB98/GEN NMR

erre ene a

0 1
  C      127.053    -216.792     166.862
  O      126.311    -216.138     167.869
  H      126.360    -217.332     166.211
  H      127.742    -217.511     167.311
  H      127.609    -216.071     166.257
  P      127.067    -215.124     168.851
  C      125.551    -213.128     168.232
  O      126.869    -213.655     168.241
  C      125.499    -211.809     167.450
  O      125.898    -212.071     166.071
  C      124.102    -211.159     167.401
  O      124.302    -209.742     167.313
  C      123.570    -211.725     166.096
  O      122.399    -211.081     165.665
  C      124.828    -211.585     165.231
  N      124.800    -212.305     163.965
  C      124.601    -211.564     162.804
  O      124.452    -210.344     162.769
  N      124.573    -212.284     161.638
  C      124.735    -213.633     161.520
  O      124.732    -214.219     160.445
  C      124.934    -214.361     162.782
  C      124.963    -213.676     163.927
  O      128.475    -215.481     169.194
  O      126.134    -215.094     170.153
  H      126.528    -215.652     170.850
  H      122.277    -211.247     164.705
  H      124.435    -211.763     160.785
  H      125.055    -215.435     162.727
  H      125.118    -214.185     164.872
  H      125.030    -210.527     165.036
  H      123.301    -212.776     166.229
  H      123.491    -211.388     168.278
  H      126.241    -211.119     167.871
  H      125.245    -212.954     169.269
  H      124.874    -213.860     167.779
  P      124.220    -208.757     168.578
  C      126.678    -207.953     168.460
  O      125.690    -208.643     169.216
  O      123.166    -209.128     169.568
  O      123.953    -207.303     167.966
  H      123.492    -206.752     168.626
  H      127.603    -207.952     168.998
  H      126.361    -206.945     168.295
  H      126.814    -208.443     167.519

 6  7  8  9  10  11  12  13  14  15  16  27  31  32  33  34  35 0
 6-311+G(2d,p)
 ****
 36  37 0
 6-311+G(2d,p)
 ****
 1  2  3  4  5  17  18  19  20  21  22  23  24  25 0
 3-21G
 ****
 26  28  29  30  38  39  40  41  42  43  44  45 0
 3-21G
 ****


