%nproc=1
%NoSave
%Mem=1900MB
#P OB98/GEN NMR

erre ene a

0 1
  C      257.894     718.814     182.486
  O      256.582     718.872     181.950
  H      258.016     719.640     183.197
  H      258.633     718.932     181.688
  H      258.061     717.871     183.011
  P      256.087     717.687     180.996
  C      256.679     716.815     178.640
  O      256.998     717.730     179.679
  C      256.474     717.585     177.321
  O      257.657     718.316     176.983
  C      256.160     716.677     176.130
  O      254.829     716.219     176.174
  C      256.486     717.613     174.979
  O      255.394     718.514     174.728
  C      257.716     718.385     175.530
  N      258.986     717.862     175.023
  C      259.060     717.633     173.651
  O      258.114     717.827     172.880
  N      260.260     717.155     173.183
  C      261.322     716.774     173.956
  O      262.339     716.262     173.501
  C      261.179     717.008     175.402
  C      260.037     717.527     175.858
  O      254.615     717.635     180.740
  O      256.597     716.365     181.742
  H      254.613     717.954     174.544
  H      255.842     715.916     182.165
  H      260.324     716.973     172.199
  H      262.004     716.728     176.048
  H      259.914     717.711     176.928
  H      257.653     719.446     175.267
  H      256.678     717.081     174.051
  H      256.866     715.842     176.108
  H      255.656     718.300     177.480
  H      255.765     716.290     178.906
  H      257.499     716.090     178.534
  P      254.369     715.030     175.203
  C      254.014     714.681     172.675
  O      254.505     715.552     173.689
  O      253.051     714.376     175.544
  O      255.563     713.970     175.315
  H      255.217     713.115     175.657
  H      254.158     715.133     171.716
  H      252.971     714.503     172.832
  H      254.544     713.753     172.715

 6  7  8  9  10  11  12  13  14  15  16  26  31  32  33  34  35 0
 6-311+G(2d,p)
 ****
 36  37 0
 6-311+G(2d,p)
 ****
 1  2  3  4  5  17  18  19  20  21  22  23  24  25 0
 3-21G
 ****
 27  28  29  30  38  39  40  41  42  43  44  45 0
 3-21G
 ****


