%nproc=1
%NoSave
%Mem=1900MB
#P OB98/GEN NMR

erre ene a

0 1
  C      -10.814    -251.877      33.346
  O      -12.200    -252.053      33.004
  P      -12.704    -253.497      32.512
  C      -14.519    -252.896      30.723
  O      -14.230    -253.374      32.032
  C      -15.983    -252.461      30.635
  O      -16.863    -253.561      30.963
  C      -16.369    -251.344      31.596
  O      -15.913    -250.078      31.148
  C      -17.890    -251.472      31.609
  O      -18.471    -250.793      30.482
  C      -18.083    -252.996      31.488
  N      -18.455    -253.613      32.759
  C      -19.411    -254.628      32.699
  O      -19.974    -254.956      31.658
  N      -19.723    -255.221      33.890
  C      -19.235    -254.870      35.116
  O      -19.571    -255.433      36.155
  C      -18.289    -253.743      35.127
  C      -17.951    -253.173      33.968
  O      -12.860    -254.289      33.901
  O      -11.784    -254.227      31.591
  H      -19.389    -251.122      30.403
  H      -12.729    -255.245      33.747
  H      -20.390    -255.976      33.865
  H      -17.895    -253.418      36.085
  H      -17.256    -252.343      33.960
  H      -18.863    -253.220      30.749
  H      -18.333    -251.036      32.508
  H      -15.983    -251.568      32.597
  H      -16.189    -252.161      29.596
  H      -14.339    -253.699      29.999
  H      -13.851    -252.060      30.494
  P      -15.598    -248.986      32.284
  C      -16.466    -246.893      30.987
  O      -15.369    -247.611      31.497
  O      -14.136    -249.445      32.752
  O      -16.619    -248.960      33.374
  H      -13.616    -249.821      32.018
  H      -17.355    -247.002      31.622
  H      -16.700    -247.254      29.982
  H      -16.205    -245.830      30.933
  H      -10.648    -250.865      33.651
  H      -10.206    -252.097      32.494
  H      -10.558    -252.538      34.148

 3  4  5  6  7  8  9  10  11  12  13  23  28  29  30  31  32 0
 6-311+G(2d,p)
 ****
 33  34 0
 6-311+G(2d,p)
 ****
 1  2  14  15  16  17  18  19  20  21  22  24  25  26 0
 3-21G
 ****
 27  35  36  37  38  39  40  41  42  43  44  45 0
 3-21G
 ****


