%nproc=1
%NoSave
%Mem=1900MB
#P OB98/GEN NMR

erre ene a

0 1
  C       84.665     -79.437    -319.753
  O       85.049     -78.935    -321.013
  P       86.480     -78.251    -321.234
  C       85.656     -76.107    -320.066
  O       86.642     -77.134    -320.087
  C       86.324     -74.735    -319.913
  O       86.968     -74.673    -318.602
  C       87.401     -74.472    -320.983
  O       87.242     -73.242    -321.693
  C       88.696     -74.610    -320.198
  O       89.806     -73.974    -320.801
  C       88.275     -74.103    -318.815
  N       89.224     -74.478    -317.768
  C       88.920     -74.090    -316.469
  O       87.910     -73.470    -316.144
  N       89.858     -74.387    -315.520
  C       91.093     -74.914    -315.752
  O       91.924     -75.062    -314.868
  C       91.374     -75.267    -317.153
  C       90.436     -75.059    -318.079
  O       86.743     -77.752    -322.616
  O       87.502     -79.382    -320.743
  H       90.569     -74.074    -320.200
  H       87.395     -79.657    -319.817
  H       89.651     -74.112    -314.572
  H       92.350     -75.678    -317.369
  H       90.615     -75.310    -319.121
  H       88.162     -73.018    -318.804
  H       88.936     -75.680    -320.135
  H       87.370     -75.235    -321.770
  H       85.537     -73.976    -319.948
  H       84.990     -76.278    -319.217
  H       85.049     -76.154    -320.977
  P       87.417     -73.063    -323.272
  C       89.689     -71.828    -322.992
  O       88.978     -72.895    -323.585
  O       86.534     -72.037    -323.898
  O       87.088     -74.519    -323.853
  H       86.722     -74.436    -324.752
  H       90.518     -71.552    -323.648
  H       90.098     -72.157    -322.032
  H       89.051     -70.954    -322.837
  H       83.680     -79.850    -319.819
  H       84.672     -78.643    -319.036
  H       85.352     -80.199    -319.448

 3  4  5  6  7  8  9  10  11  12  13  23  28  29  30  31  32 0
 6-311+G(2d,p)
 ****
 33  34 0
 6-311+G(2d,p)
 ****
 1  2  14  15  16  17  18  19  20  21  22  24  25  26  27 0
 3-21G
 ****
 35  36  37  38  39  40  41  42  43  44  45 0
 3-21G
 ****


