%nproc=1
%NoSave
%Mem=1900MB
#P OB98/GEN NMR

erre ene a

0 1
  C     -434.983     143.801      44.330
  O     -436.055     144.474      44.956
  H     -435.353     142.861      43.912
  H     -434.197     143.577      45.055
  H     -434.578     144.413      43.520
  P     -435.705     145.835      45.728
  C     -436.830     147.420      44.003
  O     -435.624     146.991      44.621
  C     -436.544     147.845      42.566
  O     -435.907     146.759      41.852
  C     -437.788     148.184      41.758
  O     -438.290     149.481      42.042
  C     -437.254     148.068      40.342
  O     -436.609     149.277      39.917
  C     -436.244     146.910      40.458
  N     -436.769     145.675      39.882
  C     -436.712     145.586      38.494
  O     -436.254     146.474      37.778
  N     -437.243     144.449      37.948
  C     -437.854     143.441      38.635
  O     -438.356     142.474      38.077
  C     -437.899     143.598      40.097
  C     -437.366     144.693      40.647
  O     -434.182     145.623      46.170
  O     -436.587     146.144      46.892
  H     -434.137     145.452      47.129
  H     -437.330     149.903      39.703
  H     -437.209     144.364      36.943
  H     -438.378     142.818      40.674
  H     -437.397     144.836      41.721
  H     -435.312     147.160      39.935
  H     -438.057     147.865      39.638
  H     -438.560     147.419      41.913
  H     -435.852     148.696      42.586
  H     -437.240     148.275      44.550
  H     -437.557     146.603      44.034
  P     -439.557     149.593      43.021
  C     -438.702     151.756      44.252
  O     -439.037     150.379      44.317
  O     -439.698     148.073      43.495
  O     -440.761     150.165      42.355
  H     -438.846     147.602      43.464
  H     -438.379     152.090      45.216
  H     -439.561     152.318      43.949
  H     -437.914     151.898      43.543

 6  7  8  9  10  11  12  13  14  15  16  27  31  32  33  34  35 0
 6-311+G(2d,p)
 ****
 36  37 0
 6-311+G(2d,p)
 ****
 1  2  3  4  5  17  18  19  20  21  22  23  24  25 0
 3-21G
 ****
 26  28  29  30  38  39  40  41  42  43  44  45 0
 3-21G
 ****


