%nproc=1
%NoSave
%Mem=1900MB
#P OB98/GEN NMR

erre ene a

0 1
  C       27.585     -79.001      20.926
  O       27.579     -79.097      19.500
  P       27.340     -80.527      18.817
  C       25.145     -79.903      17.619
  O       26.496     -80.317      17.466
  C       24.322     -80.262      16.374
  O       24.682     -79.400      15.256
  C       24.547     -81.709      15.916
  O       23.347     -82.248      15.339
  C       25.566     -81.556      14.802
  O       25.569     -82.684      13.931
  C       25.097     -80.249      14.167
  N       27.479     -80.128       9.634
  C       26.425     -80.849      10.076
  N       25.831     -80.812      11.287
  C       26.425     -79.904      12.080
  C       27.501     -79.090      11.764
  C       28.043     -79.231      10.476
  N       29.134     -78.517      10.035
  N       27.841     -78.286      12.836
  C       27.014     -78.646      13.795
  N       26.120     -79.595      13.379
  O       26.827     -81.598      19.720
  O       28.795     -80.898      18.255
  H       26.179     -82.486      13.197
  H       28.971     -81.845      18.426
  H       26.006     -81.554       9.361
  H       27.028     -78.265      14.806
  H       24.226     -80.403      13.517
  H       26.570     -81.451      15.230
  H       24.895     -82.386      16.702
  H       23.261     -80.085      16.585
  H       25.107     -78.826      17.793
  H       29.525     -78.768       9.139
  H       29.653     -77.958      10.699
  H       24.728     -80.368      18.519
  P       22.350     -82.999      16.360
  C       20.272     -81.704      15.442
  O       20.904     -82.942      15.674
  O       22.439     -82.489      17.761
  O       22.805     -84.525      16.201
  H       22.862     -84.841      15.283
  H       19.365     -81.874      14.857
  H       20.927     -81.032      14.880
  H       19.994     -81.240      16.394
  H       27.756     -77.985      21.214
  H       28.363     -79.620      21.322
  H       26.640     -79.326      21.309

 3  4  5  6  7  8  9  10  11  12  22  25  29  30  31  32 0
 6-311+G(2d,p)
 ****
 33  36  37 0
 6-311+G(2d,p)
 ****
 1  2  13  14  15  16  17  18  19  20  21  23  24  26 0
 3-21G
 ****
 27  28  34  35  38  39  40  41  42  43  44  45  46  47  48 0
 3-21G
 ****


