%nproc=1
%NoSave
%Mem=1900MB
#P OB98/GEN NMR

erre ene a

0 1
  C     -160.479     -70.457    -276.746
  O     -160.532     -70.577    -275.333
  P     -160.981     -69.340    -274.414
  C     -158.604     -69.058    -273.478
  O     -159.654     -68.460    -274.227
  C     -157.469     -68.061    -273.276
  O     -156.784     -67.887    -274.541
  C     -157.881     -66.652    -272.851
  O     -158.079     -66.493    -271.454
  C     -156.659     -65.856    -273.280
  O     -155.606     -66.021    -272.311
  C     -156.275     -66.532    -274.598
  N     -155.286     -63.297    -278.436
  C     -154.504     -63.809    -277.458
  N     -154.847     -64.652    -276.463
  C     -156.139     -64.996    -276.560
  C     -157.060     -64.564    -277.501
  C     -156.586     -63.671    -278.478
  N     -157.382     -63.170    -279.486
  N     -158.300     -65.124    -277.266
  C     -158.123     -65.892    -276.211
  N     -156.835     -65.855    -275.753
  O     -161.687     -69.725    -273.161
  O     -161.880     -68.436    -275.379
  H     -155.552     -66.975    -272.105
  H     -162.411     -67.808    -274.851
  H     -153.461     -63.496    -277.480
  H     -158.897     -66.484    -275.743
  H     -155.189     -66.595    -274.739
  H     -156.852     -64.781    -273.355
  H     -158.754     -66.303    -273.418
  H     -156.753     -68.488    -272.563
  H     -158.229     -69.921    -274.039
  H     -156.928     -62.643    -280.215
  H     -158.300     -63.572    -279.611
  H     -158.992     -69.414    -272.518
  P     -158.689     -65.089    -270.956
  C     -156.713     -64.442    -269.367
  O     -157.426     -64.187    -270.555
  O     -159.746     -65.208    -269.916
  O     -159.204     -64.423    -272.318
  H     -158.506     -64.174    -272.945
  H     -155.806     -63.832    -269.359
  H     -156.426     -65.494    -269.298
  H     -157.323     -64.172    -268.498
  H     -160.159     -71.385    -277.171
  H     -159.787     -69.685    -277.013
  H     -161.451     -70.210    -277.120

 3  4  5  6  7  8  9  10  11  12  22  25  29  30  31  32 0
 6-311+G(2d,p)
 ****
 33  36  37 0
 6-311+G(2d,p)
 ****
 1  2  13  14  15  16  17  18  19  20  21  23  24  26 0
 3-21G
 ****
 27  28  34  35  38  39  40  41  42  43  44  45  46  47  48 0
 3-21G
 ****


