%nproc=1
%NoSave
%Mem=1900MB
#P OB98/GEN NMR

erre ene a

0 1
  C       12.731      14.787     -92.804
  O       13.894      14.188     -92.253
  P       14.866      15.116     -91.376
  C       16.590      16.981     -91.867
  O       15.646      16.067     -92.408
  C       17.026      17.998     -92.916
  O       15.845      18.510     -93.595
  C       17.790      19.208     -92.348
  O       18.910      19.501     -93.197
  C       16.798      20.352     -92.484
  O       17.446      21.616     -92.571
  C       16.055      19.927     -93.753
  N       13.918      23.993     -95.863
  C       15.187      23.467     -96.042
  N       16.017      24.162     -96.851
  N       15.606      22.367     -95.472
  C       14.656      21.764     -94.714
  C       13.366      22.178     -94.469
  C       12.937      23.430     -95.056
  O       11.859      23.992     -94.868
  N       12.702      21.290     -93.660
  C       13.587      20.342     -93.412
  N       14.804      20.608     -93.991
  O       15.989      14.084     -90.884
  O       14.220      15.803     -90.222
  H       17.683      21.877     -91.660
  H       16.044      14.100     -89.907
  H       13.655      24.851     -96.312
  H       13.402      19.466     -92.799
  H       16.694      20.082     -94.637
  H       16.132      20.356     -91.612
  H       15.747      24.995     -97.351
  H       18.134      19.076     -91.317
  H       16.940      23.783     -97.011
  H       17.631      17.481     -93.676
  H       17.468      16.427     -91.520
  H       16.135      17.492     -91.013
  P       20.308      19.761     -92.452
  C       21.209      21.778     -91.064
  O       20.306      21.313     -92.050
  O       21.382      19.676     -93.639
  O       20.595      18.797     -91.348
  H       22.259      19.436     -93.287
  H       21.951      21.015     -90.794
  H       20.649      22.060     -90.172
  H       21.736      22.656     -91.452
  H       12.182      14.056     -93.360
  H       13.016      15.588     -93.453
  H       12.118      15.169     -92.014

 3  4  5  6  7  8  9  10  11  12  23  26  30  31  33  0
 6-311+G(2d,p)
 ****
 35  36  37  38 0
 6-311+G(2d,p)
 ****
 1  2  13  14  15  16  17  18  19  20  21  22  24  25  27  28  29 0
 3-21G
 ****
 32  34  39  40  41  42  43  44  45  46  47  48  49 0
 3-21G
 ****


