%nproc=1
%NoSave
%Mem=1900MB
#P OB98/GEN NMR

erre ene a

0 1
  C       81.422      53.163      39.482
  O       80.138      52.695      39.856
  P       79.890      51.950      41.258
  C       80.229      52.683      43.715
  O       80.595      52.876      42.360
  C       81.409      52.999      44.636
  O       82.392      51.939      44.509
  C       82.114      54.325      44.327
  O       82.553      54.874      45.574
  C       83.300      53.890      43.488
  O       84.352      54.843      43.491
  C       83.647      52.552      44.151
  N       84.428      51.681      43.281
  C       85.763      51.454      43.618
  O       86.266      51.990      44.604
  N       86.507      50.616      42.826
  C       85.991      50.119      41.745
  N       86.749      49.248      41.026
  C       84.619      50.422      41.294
  C       83.899      51.181      42.113
  O       80.304      50.520      41.288
  O       78.342      52.191      41.564
  H       84.963      54.629      42.760
  H       77.755      51.522      41.130
  H       84.243      50.006      40.369
  H       82.875      51.435      41.876
  H       84.191      52.724      45.087
  H       82.980      53.745      42.451
  H       81.461      55.045      43.825
  H       81.051      52.989      45.673
  H       87.612      48.933      41.457
  H       79.947      51.635      43.850
  H       86.321      48.590      40.384
  H       79.362      53.307      43.956
  P       82.877      56.445      45.642
  C       81.434      58.586      45.390
  O       81.629      57.237      45.026
  O       83.976      56.598      44.479
  O       83.431      56.954      46.932
  H       84.536      57.373      44.672
  H       80.548      58.963      44.874
  H       82.293      59.193      45.093
  H       81.274      58.672      46.468
  H       81.367      53.625      38.518
  H       82.105      52.340      39.444
  H       81.765      53.878      40.201

 3  4  5  6  7  8  9  10  11  12  13  23  27  28  29  30  32 0
 6-311+G(2d,p)
 ****
 34  35 0
 6-311+G(2d,p)
 ****
 1  2  14  15  16  17  18  19  20  21  22  24  25  26 0
 3-21G
 ****
 31  33  36  37  38  39  40  41  42  43  44  45  46 0
 3-21G
 ****


