%nproc=1
%NoSave
%Mem=1900MB
#P OB98/GEN NMR

erre ene a

0 1
  C       90.352     102.669      -1.440
  O       89.701     102.494      -0.197
  H       91.029     103.524      -1.382
  H       90.937     101.772      -1.660
  H       89.625     102.821      -2.242
  P       88.556     103.549       0.186
  C       88.509     105.890       1.305
  O       89.296     104.774       0.918
  C       89.349     106.885       2.104
  O       89.608     106.320       3.420
  C       90.704     107.225       1.464
  O       90.967     108.616       1.672
  C       91.688     106.409       2.280
  O       93.000     106.961       2.273
  C       91.024     106.424       3.652
  N       94.957     104.842       6.458
  C       94.618     106.060       5.986
  N       93.518     106.406       5.288
  C       92.693     105.355       5.150
  C       92.898     104.056       5.581
  C       94.108     103.808       6.252
  N       94.494     102.558       6.677
  N       91.844     103.249       5.198
  C       91.033     104.042       4.525
  N       91.505     105.323       4.468
  O       87.790     102.805       1.381
  O       87.631     103.926      -0.921
  H       93.319     107.009       1.351
  H       87.093     102.232       1.016
  H       95.328     106.859       6.184
  H       90.118     103.736       4.038
  H       91.217     107.352       4.205
  H       91.741     105.390       1.879
  H       90.757     106.996       0.393
  H       88.756     107.794       2.258
  H       87.680     105.543       1.931
  H       95.425     102.457       7.051
  H       93.924     101.761       6.434
  H       88.098     106.370       0.412
  P       91.087     109.548       0.373
  C       92.423     109.547      -1.861
  O       92.175     108.910      -0.612
  O       91.815     110.860       0.929
  O       89.773     109.875      -0.260
  H       91.507     111.648       0.447
  H       93.171     109.001      -2.397
  H       92.765     110.546      -1.690
  H       91.520     109.572      -2.434

 6  7  8  9  10  11  12  13  14  15  25  28  32  33  34  35 0
 6-311+G(2d,p)
 ****
 36  39  40 0
 6-311+G(2d,p)
 ****
 1  2  3  4  5  16  17  18  19  20  21  22  23  24 0
 3-21G
 ****
 26  27  29  30  31  37  38  41  42  43  44  45  46  47 0
 3-21G
 ****
 48 0
 3-21G
 ****


