%nproc=1
%NoSave
%Mem=1900MB
#P OB98/GEN NMR

erre ene a

0 1
  C      183.202     -12.540    -383.259
  O      182.433     -13.495    -382.554
  H      182.939     -12.591    -384.318
  H      184.267     -12.760    -383.147
  H      182.989     -11.534    -382.890
  P      182.663     -13.565    -380.969
  C      182.465     -16.133    -380.565
  O      181.856     -14.855    -380.461
  C      181.744     -17.143    -379.663
  O      181.970     -16.768    -378.272
  C      180.222     -17.188    -379.869
  O      179.768     -18.512    -379.542
  C      179.738     -16.208    -378.812
  O      178.350     -16.332    -378.604
  C      180.668     -16.596    -377.666
  N      179.346     -15.543    -372.841
  C      179.191     -16.652    -373.594
  N      179.579     -16.864    -374.866
  C      180.210     -15.781    -375.357
  C      180.451     -14.584    -374.708
  C      179.981     -14.478    -373.385
  N      180.130     -13.346    -372.620
  N      181.121     -13.704    -375.539
  C      181.281     -14.365    -376.668
  N      180.740     -15.619    -376.607
  O      181.803     -12.336    -380.417
  O      184.086     -13.500    -380.524
  H      177.848     -15.847    -379.293
  H      182.377     -11.555    -380.300
  H      178.683     -17.484    -373.106
  H      181.771     -13.981    -377.556
  H      180.380     -17.554    -377.216
  H      179.917     -15.174    -379.127
  H      179.913     -16.937    -380.888
  H      182.196     -18.132    -379.800
  H      183.513     -16.045    -380.259
  H      182.419     -16.477    -381.603
  H      179.753     -13.348    -371.686
  H      180.588     -12.539    -373.021
  P      178.381     -19.039    -380.161
  C      176.923     -20.025    -378.225
  O      177.854     -20.264    -379.271
  O      178.874     -19.787    -381.494
  O      177.375     -17.985    -380.490
  H      178.164     -19.764    -382.162
  H      176.685     -20.949    -377.741
  H      176.032     -19.595    -378.632
  H      177.351     -19.350    -377.513

 6  7  8  9  10  11  12  13  14  15  25  28  32  33  34  35 0
 6-311+G(2d,p)
 ****
 36  37  40 0
 6-311+G(2d,p)
 ****
 1  2  3  4  5  16  17  18  19  20  21  22  23  24 0
 3-21G
 ****
 26  27  29  30  31  38  39 41  42  43  44  45  46  47  48 0
 3-21G
 ****


