%nproc=1
%NoSave
%Mem=1900MB
#P OB98/GEN NMR

erre ene a

0 1
  C      729.786    -716.388    -670.733
  O      729.851    -716.260    -669.311
  P      730.274    -714.823    -668.723
  C      727.866    -714.009    -668.102
  O      729.000    -713.867    -668.940
  C      726.918    -712.810    -668.266
  O      727.470    -711.646    -667.588
  C      726.634    -712.425    -669.720
  O      725.263    -712.019    -669.783
  C      727.552    -711.235    -669.934
  O      727.118    -710.412    -671.010
  C      727.484    -710.572    -668.555
  N      728.590    -709.647    -668.313
  C      728.535    -708.419    -668.958
  O      727.651    -708.122    -669.754
  N      729.557    -707.555    -668.680
  C      730.652    -707.824    -667.904
  O      731.542    -707.010    -667.690
  C      730.711    -709.179    -667.342
  C      729.695    -710.020    -667.572
  O      731.332    -714.333    -669.813
  O      730.786    -714.898    -667.323
  H      731.099    -714.591    -670.721
  H      726.312    -709.924    -670.735
  H      729.518    -706.640    -669.111
  H      731.588    -709.460    -666.775
  H      729.720    -711.035    -667.194
  H      726.543    -710.021    -668.437
  H      728.571    -711.577    -670.151
  H      726.816    -713.243    -670.422
  H      725.977    -713.064    -667.760
  H      728.186    -714.063    -667.055
  H      727.361    -714.954    -668.333
  P      724.136    -713.162    -669.890
  C      722.934    -712.230    -667.759
  O      723.502    -713.335    -668.431
  O      725.067    -714.457    -670.028
  O      723.183    -713.011    -671.032
  H      725.796    -714.481    -669.380
  H      722.357    -712.596    -666.905
  H      722.265    -711.672    -668.414
  H      723.727    -711.572    -667.388
  H      729.495    -717.386    -670.988
  H      730.747    -716.177    -671.154
  H      729.067    -715.697    -671.121

 3  4  5  6  7  8  9  10  11  12  13  24  28  29  30  31  32 0
 6-311+G(2d,p)
 ****
 33  34 0
 6-311+G(2d,p)
 ****
 1  2  14  15  16  17  18  19  20  21  22  23  25  26  27 0
 3-21G
 ****
 35  36  37  38  39  40  41  42  43  44  45 0
 3-21G
 ****


