%nproc=1
%NoSave
%Mem=1900MB
#P OB98/GEN NMR

erre ene a

0 1
  C       10.411     -95.286      66.410
  O       10.431     -93.971      66.992
  P        9.128     -93.039      66.864
  C        9.311     -92.631      69.442
  O        9.046     -92.091      68.155
  C       10.238     -91.697      70.224
  O       11.612     -91.884      69.811
  C        9.959     -90.216      70.016
  O        8.823     -89.783      70.745
  C       11.263     -89.593      70.499
  O       11.271     -89.462      71.931
  C       12.302     -90.636      70.042
  N       13.045     -90.210      68.860
  C       13.961     -89.181      69.043
  O       14.117     -88.600      70.116
  N       14.674     -88.813      67.935
  C       14.515     -89.316      66.674
  O       15.173     -88.931      65.716
  C       13.475     -90.343      66.527
  C       12.795     -90.732      67.607
  O        7.943     -94.083      67.145
  O        8.939     -92.367      65.544
  H       10.982     -90.324      72.292
  H        7.135     -93.789      66.685
  H       15.365     -88.089      68.052
  H       13.301     -90.751      65.540
  H       12.024     -91.491      67.515
  H       13.017     -90.835      70.850
  H       11.427     -88.593      70.086
  H        9.837     -90.006      68.947
  H       10.166     -91.957      71.288
  H        9.795     -93.605      69.331
  H        8.364     -92.768      69.973
  P        7.510     -89.428      69.890
  C        6.257     -90.907      71.644
  O        6.277     -89.729      70.868
  O        7.504     -90.629      68.831
  O        7.556     -88.065      69.286
  H        7.854     -91.454      69.209
  H        7.263     -91.206      71.948
  H        5.797     -91.713      71.066
  H        5.657     -90.727      72.540
  H       11.350     -95.768      66.585
  H       10.242     -95.207      65.356
  H        9.626     -95.861      66.855

 3  4  5  6  7  8  9  10  11  12  13  23  28  29  30  31  32 0
 6-311+G(2d,p)
 ****
 33  34 0
 6-311+G(2d,p)
 ****
 1  2  14  15  16  17  18  19  20  21  22  24  25  26 0
 3-21G
 ****
 27  35  36  37  38  39  40  41  42  43  44  45 0
 3-21G
 ****


