%nproc=1
%NoSave
%Mem=1900MB
#P OB98/GEN NMR

erre ene a

0 1
  C       85.307    -519.714    1024.055
  O       85.504    -521.068    1024.417
  H       85.199    -519.121    1024.965
  H       84.394    -519.612    1023.459
  H       86.167    -519.336    1023.492
  P       85.797    -522.143    1023.269
  C       87.792    -523.536    1024.099
  O       87.377    -522.438    1023.301
  C       89.303    -523.743    1023.978
  O       89.613    -524.134    1022.612
  C       90.125    -522.495    1024.317
  O       91.306    -522.915    1024.999
  C       90.490    -521.938    1022.952
  O       91.701    -521.172    1022.987
  C       90.603    -523.208    1022.115
  N       92.867    -522.972    1017.600
  C       93.374    -523.358    1018.831
  N       94.674    -523.719    1018.869
  N       92.649    -523.401    1019.926
  C       91.357    -523.028    1019.737
  C       90.744    -522.624    1018.571
  C       91.552    -522.573    1017.372
  O       91.166    -522.224    1016.261
  N       89.425    -522.304    1018.785
  C       89.244    -522.507    1020.077
  N       90.386    -522.940    1020.697
  O       85.259    -521.800    1021.916
  O       85.159    -523.499    1023.834
  H       91.463    -520.279    1023.300
  H       84.287    -523.664    1023.429
  H       93.467    -522.957    1016.799
  H       88.313    -522.362    1020.611
  H       91.598    -523.690    1022.205
  H       89.683    -521.296    1022.585
  H       95.270    -523.729    1018.066
  H       89.574    -521.766    1024.912
  H       95.050    -524.024    1019.761
  H       89.588    -524.595    1024.621
  H       87.267    -524.436    1023.750
  H       87.516    -523.360    1025.140
  P       91.638    -522.242    1026.428
  C       90.773    -524.504    1027.307
  O       90.903    -523.113    1027.564
  O       91.441    -520.765    1026.515
  O       93.182    -522.642    1026.648
  H       93.606    -521.938    1027.187
  H       90.272    -524.973    1028.128
  H       91.744    -524.937    1027.188
  H       90.205    -524.650    1026.412

 6  7  8  9  10  11  12  13  14  15  26  29  33  34 0
 6-311+G(2d,p)
 ****
 36  38  39  40  41 0
 6-311+G(2d,p)
 ****
 1  2  3  4  5  16  17  18  19  20  21  22  23  24  25 0
 3-21G
 ****
 27  28  30  31  32  35  37  42  43  44  45  46  47 0
 3-21G
 ****
 48  49 0
 3-21G
 ****


