%nproc=1
%NoSave
%Mem=1900MB
#P OB98/GEN NMR

erre ene a

0 1
  C      -33.597     132.169    -436.018
  O      -33.324     133.330    -435.256
  H      -34.308     132.429    -436.806
  H      -34.039     131.393    -435.388
  H      -32.683     131.795    -436.486
  P      -32.301     133.206    -434.028
  C      -34.304     132.673    -432.480
  O      -33.024     132.263    -432.948
  C      -34.907     131.584    -431.587
  O      -35.243     130.424    -432.370
  C      -33.974     131.112    -430.476
  O      -34.004     132.019    -429.383
  C      -34.597     129.764    -430.154
  O      -35.787     129.953    -429.366
  C      -34.963     129.250    -431.557
  N      -32.167     125.018    -431.377
  C      -33.104     125.502    -430.479
  N      -33.288     124.778    -429.358
  N      -33.782     126.612    -430.662
  C      -33.436     127.265    -431.801
  C      -32.510     126.894    -432.750
  C      -31.808     125.639    -432.568
  O      -30.984     125.172    -433.341
  N      -32.389     127.850    -433.729
  C      -33.263     128.780    -433.386
  N      -33.915     128.479    -432.212
  O      -31.789     134.495    -433.457
  O      -31.122     132.289    -434.597
  H      -36.093     129.067    -429.096
  H      -30.403     132.827    -434.971
  H      -31.667     124.177    -431.168
  H      -33.465     129.682    -433.950
  H      -35.868     128.627    -431.552
  H      -33.936     129.110    -429.584
  H      -32.609     124.099    -429.043
  H      -32.954     130.948    -430.839
  H      -33.935     125.140    -428.667
  H      -35.845     131.981    -431.170
  H      -34.937     132.844    -433.362
  H      -34.220     133.606    -431.915
  P      -32.733     132.188    -428.411
  C      -33.608     130.097    -427.168
  O      -32.490     130.730    -427.785
  O      -32.849     133.290    -427.414
  O      -31.488     132.343    -429.407
  H      -31.314     133.281    -429.673
  H      -33.314     129.138    -426.794
  H      -34.390     129.975    -427.888
  H      -33.959     130.703    -426.359

 6  7  8  9  10  11  12  13  14  15  26  29  33  34 0
 6-311+G(2d,p)
 ****
 36  38  39  40  41 0
 6-311+G(2d,p)
 ****
 1  2  3  4  5  16  17  18  19  20  21  22  23  24  25 0
 3-21G
 ****
 27  28  30  31  32  35  37  42  43  44  45  46  47 0
 3-21G
 ****
 48  49 0
 3-21G
 ****


