%nproc=1
%NoSave
%Mem=1900MB
#P OB98/GEN NMR

erre ene a

0 1
  C     -146.401      -0.436      28.438
  O     -146.073       0.319      27.291
  H     -147.356      -0.937      28.266
  H     -146.505       0.227      29.300
  H     -145.642      -1.195      28.642
  P     -144.594       0.920      27.154
  C     -143.259      -1.053      26.170
  O     -143.916       0.177      25.904
  C     -142.609      -1.610      24.899
  O     -141.620      -2.611      25.277
  C     -143.599      -2.284      23.937
  O     -143.096      -2.097      22.607
  C     -143.484      -3.739      24.344
  O     -143.995      -4.597      23.350
  C     -141.981      -3.841      24.619
  N     -141.637      -5.015      25.418
  C     -141.514      -6.217      24.735
  O     -141.710      -6.328      23.525
  N     -141.199      -7.311      25.493
  C     -141.062      -7.327      26.850
  O     -140.812      -8.344      27.483
  C     -141.247      -6.033      27.526
  C     -141.519      -4.952      26.792
  O     -143.776       0.914      28.402
  O     -144.821       2.403      26.596
  H     -144.971      -4.518      23.302
  H     -144.109       2.992      26.911
  H     -141.096      -8.189      25.010
  H     -141.154      -6.014      28.604
  H     -141.661      -3.985      27.261
  H     -141.418      -3.897      23.678
  H     -144.052      -3.928      25.261
  H     -144.614      -1.892      24.020
  H     -142.064      -0.799      24.401
  H     -144.006      -1.761      26.545
  H     -142.496      -0.901      26.940
  P     -143.740      -1.034      21.593
  C     -142.184       0.941      21.034
  O     -142.567      -0.392      20.706
  O     -144.634      -0.030      22.243
  O     -144.558      -1.920      20.539
  H     -145.302      -1.402      20.182
  H     -141.400       1.258      20.379
  H     -141.839       0.974      22.046
  H     -143.026       1.592      20.923

 6  7  8  9  10  11  12  13  14  15  16  26  31  32  33  34  35 0
 6-311+G(2d,p)
 ****
 36  37 0
 6-311+G(2d,p)
 ****
 1  2  3  4  5  17  18  19  20  21  22  23  24  25 0
 3-21G
 ****
 27  28  29  30  38  39  40  41  42  43  44  45 0
 3-21G
 ****


