%nproc=1
%NoSave
%Mem=1900MB
#P OB98/GEN NMR

erre ene a

0 1
  C      820.412    -143.682     114.227
  O      820.857    -142.342     114.456
  P      820.782    -141.815     115.981
  C      819.836    -139.395     115.742
  O      820.981    -140.222     115.944
  C      820.218    -137.915     115.731
  O      820.995    -137.585     116.900
  C      821.092    -137.496     114.555
  O      820.325    -137.299     113.375
  C      821.675    -136.188     115.058
  O      820.732    -135.122     114.838
  C      821.844    -136.450     116.568
  N      825.437    -135.837     120.084
  C      824.146    -135.335     120.040
  N      823.752    -134.598     121.099
  N      823.322    -135.551     119.051
  C      823.848    -136.340     118.073
  C      825.101    -136.891     118.002
  C      826.021    -136.615     119.094
  O      827.187    -137.010     119.176
  N      825.272    -137.634     116.862
  C      824.095    -137.559     116.261
  N      823.200    -136.779     116.950
  O      822.152    -142.343     116.613
  O      819.586    -142.310     116.735
  H      821.182    -134.286     115.083
  H      822.054    -142.471     117.575
  H      826.034    -135.634     120.874
  H      823.845    -138.057     115.326
  H      821.503    -135.606     117.178
  H      822.597    -135.902     114.542
  H      824.307    -134.454     121.929
  H      821.914    -138.228     114.390
  H      822.794    -134.258     121.101
  H      819.299    -137.317     115.743
  H      819.095    -139.574     116.519
  H      819.356    -139.680     114.781
  P      820.696    -138.191     112.088
  C      820.420    -136.520     110.121
  O      819.843    -137.573     110.885
  O      819.975    -139.590     112.403
  O      822.162    -138.360     111.850
  H      820.456    -140.330     111.980
  H      821.464    -136.712     109.909
  H      820.317    -135.582     110.679
  H      819.868    -136.425     109.170
  H      820.508    -143.917     113.188
  H      819.387    -143.772     114.520
  H      821.008    -144.359     114.802

 3  4  5  6  7  8  9  10  11  12  23  26  30  31  33  0
 6-311+G(2d,p)
 ****
 35  36  37  38 0
 6-311+G(2d,p)
 ****
 1  2  13  14  15  16  17  18  19  20  21  22  24  25  27  28  29 0
 3-21G
 ****
 32  34  39  40  41  42  43  44  45  46  47  48  49 0
 3-21G
 ****


