%nproc=1
%NoSave
%Mem=1900MB
#P OB98/GEN NMR

erre ene a

0 1
  C      123.344    1142.880    -230.608
  O      123.500    1144.189    -231.109
  H      122.289    1142.720    -230.367
  H      123.931    1142.751    -229.695
  H      123.649    1142.141    -231.354
  P      124.949    1144.595    -231.674
  C      124.251    1144.360    -234.165
  O      125.086    1143.896    -233.119
  C      125.042    1144.491    -235.470
  O      125.356    1143.159    -235.960
  C      124.296    1145.236    -236.577
  O      125.227    1146.045    -237.295
  C      123.788    1144.127    -237.484
  O      123.567    1144.561    -238.821
  C      124.889    1143.067    -237.323
  N      124.390    1141.732    -237.635
  C      124.085    1141.478    -238.976
  O      124.228    1142.357    -239.827
  N      123.573    1140.251    -239.322
  C      123.304    1139.382    -238.391
  N      122.767    1138.202    -238.784
  C      123.548    1139.634    -236.960
  C      124.096    1140.811    -236.654
  O      125.954    1143.749    -230.765
  O      125.256    1146.054    -231.660
  H      124.236    1145.247    -239.035
  H      126.798    1144.220    -230.636
  H      123.284    1138.893    -236.212
  H      124.306    1141.093    -235.625
  H      125.737    1143.294    -237.978
  H      122.833    1143.741    -237.091
  H      123.485    1145.866    -236.202
  H      126.000    1144.979    -235.239
  H      122.596    1138.074    -239.778
  H      123.852    1145.343    -233.897
  H      122.476    1137.469    -238.149
  H      123.413    1143.663    -234.299
  P      125.197    1147.621    -237.005
  C      127.232    1147.540    -235.395
  O      125.866    1147.881    -235.566
  O      123.644    1147.922    -236.769
  O      125.755    1148.444    -238.121
  H      123.278    1148.421    -237.527
  H      127.534    1147.768    -234.394
  H      127.829    1148.101    -236.084
  H      127.364    1146.494    -235.578

 6  7  8  9  10  11  12  13  14  15  16  26  30  31  32  33  35 0
 6-311+G(2d,p)
 ****
 37  38 0
 6-311+G(2d,p)
 ****
 1  2  3  4  5  17  18  19  20  21  22  23  24  25 0
 3-21G
 ****
 27  28  29  34  36  39  40  41  42  43  44  45  46 0
 3-21G
 ****


