%nproc=1
%NoSave
%Mem=1900MB
#P OB98/GEN NMR

erre ene a

0 1
  C       37.989     228.282     -24.576
  O       38.968     227.672     -25.395
  H       37.238     227.533     -24.309
  H       37.495     229.102     -25.106
  H       38.448     228.658     -23.657
  P       40.102     228.588     -26.057
  C       40.944     228.905     -28.475
  O       39.840     228.563     -27.641
  C       40.526     229.930     -29.532
  O       39.492     229.338     -30.366
  C       39.972     231.232     -28.944
  O       40.411     232.319     -29.763
  C       38.475     231.045     -29.059
  O       37.793     232.284     -29.076
  C       38.349     230.215     -30.342
  N       37.087     229.475     -30.375
  C       36.323     229.598     -31.543
  O       36.725     230.288     -32.480
  N       35.091     228.993     -31.595
  C       34.636     228.366     -30.553
  N       33.394     227.825     -30.660
  C       35.397     228.234     -29.295
  C       36.603     228.805     -29.274
  O       41.508     228.290     -25.654
  O       39.679     230.077     -25.644
  H       38.203     232.869     -29.746
  H       40.103     230.323     -24.800
  H       34.971     227.710     -28.452
  H       37.227     228.773     -28.386
  H       38.404     230.862     -31.230
  H       38.105     230.465     -28.201
  H       40.286     231.396     -27.904
  H       41.387     230.126     -30.184
  H       32.900     227.962     -31.538
  H       41.289     227.988     -28.966
  H       32.917     227.352     -29.905
  H       41.756     229.305     -27.864
  P       41.614     233.273     -29.289
  C       41.939     235.453     -27.983
  O       41.027     234.415     -28.318
  O       42.483     233.783     -30.392
  O       42.464     232.346     -28.290
  H       43.403     232.616     -28.321
  H       41.456     236.158     -27.338
  H       42.260     235.948     -28.876
  H       42.787     235.035     -27.483

 6  7  8  9  10  11  12  13  14  15  16  26  30  31  32  33  35 0
 6-311+G(2d,p)
 ****
 37  38 0
 6-311+G(2d,p)
 ****
 1  2  3  4  5  17  18  19  20  21  22  23  24  25 0
 3-21G
 ****
 27  28  29  34  36  39  40  41  42  43  44  45  46 0
 3-21G
 ****


