%nproc=1
%NoSave
%Mem=1900MB
#P OB98/GEN NMR

erre ene a

0 1
  C       57.935     -67.203    -101.858
  O       57.294     -65.996    -102.216
  H       57.799     -67.940    -102.652
  H       59.005     -67.011    -101.738
  H       57.539     -67.590    -100.916
  P       55.692     -65.969    -102.152
  C       54.059     -64.147    -101.287
  O       55.272     -64.429    -101.968
  C       53.995     -62.672    -100.898
  O       55.088     -62.387     -99.978
  C       54.113     -61.700    -102.082
  O       53.229     -60.598    -101.855
  C       55.547     -61.210    -101.988
  O       55.731     -59.930    -102.583
  C       55.768     -61.224    -100.479
  N       59.864     -58.323     -99.669
  C       58.546     -58.037     -99.688
  N       57.511     -58.884     -99.859
  C       57.946     -60.152     -99.952
  C       59.256     -60.600     -99.943
  C       60.249     -59.613     -99.811
  N       61.597     -59.886     -99.859
  N       59.298     -61.969    -100.122
  C       58.039     -62.335    -100.262
  N       57.186     -61.271    -100.169
  O       55.395     -66.613    -100.715
  O       54.991     -66.700    -103.247
  H       54.986     -59.353    -102.326
  H       55.343     -67.583    -100.796
  H       58.287     -56.988     -99.561
  H       57.696     -63.340    -100.462
  H       55.352     -60.338     -99.983
  H       56.211     -61.923    -102.490
  H       53.891     -62.157    -103.053
  H       53.062     -62.498    -100.348
  H       54.010     -64.755    -100.378
  H       62.233     -59.104     -99.864
  H       61.898     -60.825    -100.074
  H       53.213     -64.408    -101.931
  P       51.795     -60.641    -102.570
  C       49.464     -59.725    -101.859
  O       50.869     -59.506    -101.924
  O       51.152     -62.000    -102.020
  O       51.863     -60.630    -104.063
  H       50.579     -62.401    -102.697
  H       48.992     -58.879    -101.404
  H       49.266     -60.600    -101.277
  H       49.078     -59.860    -102.848

 6  7  8  9  10  11  12  13  14  15  25  28  32  33  34  35 0
 6-311+G(2d,p)
 ****
 36  39  40 0
 6-311+G(2d,p)
 ****
 1  2  3  4  5  16  17  18  19  20  21  22  23  24 0
 3-21G
 ****
 26  27  29  30  31  37  38  41  42  43  44  45  46  47 0
 3-21G
 ****
 48 0
 3-21G
 ****


