%nproc=1
%NoSave
%Mem=1900MB
#P OB98/GEN NMR

erre ene a

0 1
  C      197.078    -394.556    -105.636
  O      198.439    -394.931    -105.550
  H      196.523    -395.067    -104.843
  H      196.667    -394.857    -106.603
  H      196.960    -393.477    -105.502
  P      199.518    -394.125    -106.417
  C      201.369    -394.768    -108.096
  O      200.197    -395.187    -107.413
  C      202.154    -395.975    -108.611
  O      202.578    -396.782    -107.466
  C      201.344    -396.905    -109.545
  O      202.264    -397.470    -110.491
  C      200.854    -397.952    -108.563
  O      200.354    -399.089    -109.218
  C      202.115    -398.127    -107.712
  N      201.887    -398.848    -106.472
  C      202.248    -400.194    -106.436
  O      202.763    -400.793    -107.381
  N      201.984    -400.848    -105.263
  C      201.405    -400.305    -104.154
  O      201.212    -400.937    -103.117
  C      201.019    -398.887    -104.258
  C      201.274    -398.238    -105.398
  O      200.480    -393.285    -105.641
  O      198.624    -393.235    -107.401
  H      198.540    -392.330    -107.041
  H      201.076    -399.570    -109.669
  H      202.235    -401.824    -105.219
  H      200.540    -398.434    -103.404
  H      201.003    -397.188    -105.511
  H      202.899    -398.632    -108.286
  H      200.032    -397.547    -107.960
  H      200.546    -396.378    -110.078
  H      203.074    -395.622    -109.108
  H      201.988    -394.195    -107.398
  H      201.088    -394.122    -108.935
  P      202.445    -396.918    -111.988
  C      202.367    -397.956    -114.346
  O      201.844    -397.989    -113.024
  O      203.841    -396.498    -112.306
  O      201.439    -395.673    -112.102
  H      201.851    -394.987    -112.671
  H      201.891    -398.711    -114.937
  H      203.421    -398.137    -114.317
  H      202.182    -396.995    -114.779

 6  7  8  9  10  11  12  13  14  15  16  27  31  32  33  34  35 0
 6-311+G(2d,p)
 ****
 36  37 0
 6-311+G(2d,p)
 ****
 1  2  3  4  5  17  18  19  20  21  22  23  24  25 0
 3-21G
 ****
 26  28  29  30  38  39  40  41  42  43  44  45 0
 3-21G
 ****


