%nproc=1
%NoSave
%Mem=1900MB
#P OB98/GEN NMR

erre ene a

0 1
  C      -42.390    -348.331     -80.497
  O      -41.432    -347.888     -79.557
  H      -42.618    -347.509     -81.179
  H      -43.308    -348.624     -79.981
  H      -42.003    -349.173     -81.077
  P      -40.806    -349.003     -78.588
  C      -42.764    -348.826     -76.894
  O      -41.368    -348.695     -77.116
  C      -43.081    -348.651     -75.412
  O      -42.605    -349.789     -74.659
  C      -42.443    -347.420     -74.775
  O      -43.205    -346.246     -75.015
  C      -42.487    -347.812     -73.307
  O      -43.824    -347.638     -72.795
  C      -42.133    -349.304     -73.369
  N      -38.374    -350.401     -70.149
  C      -39.713    -350.169     -69.904
  N      -40.107    -350.227     -68.613
  N      -40.590    -349.898     -70.836
  C      -40.052    -349.861     -72.079
  C      -38.743    -350.076     -72.449
  C      -37.787    -350.382     -71.409
  O      -36.594    -350.619     -71.573
  N      -38.581    -349.963     -73.805
  C      -39.783    -349.662     -74.252
  N      -40.713    -349.580     -73.243
  O      -39.262    -348.580     -78.487
  O      -40.952    -350.412     -79.053
  H      -44.084    -346.721     -72.996
  H      -38.717    -349.390     -78.436
  H      -37.740    -350.595     -69.394
  H      -40.034    -349.496     -75.292
  H      -42.643    -349.886     -72.593
  H      -41.826    -347.204     -72.690
  H      -39.476    -350.383     -67.842
  H      -41.399    -347.300     -75.090
  H      -41.090    -350.094     -68.410
  H      -44.173    -348.619     -75.301
  H      -43.090    -349.820     -77.219
  H      -43.290    -348.068     -77.484
  P      -42.667    -345.226     -76.136
  C      -41.037    -344.080     -74.469
  O      -42.158    -343.933     -75.330
  O      -44.013    -344.720     -76.838
  O      -41.707    -345.812     -77.112
  H      -43.818    -344.397     -77.740
  H      -40.818    -343.141     -74.005
  H      -40.190    -344.403     -75.038
  H      -41.259    -344.807     -73.716

 6  7  8  9  10  11  12  13  14  15  26  29  33  34 0
 6-311+G(2d,p)
 ****
 36  38  39  40  41 0
 6-311+G(2d,p)
 ****
 1  2  3  4  5  16  17  18  19  20  21  22  23  24  25 0
 3-21G
 ****
 27  28  30  31  32  35  37  42  43  44  45  46  47 0
 3-21G
 ****
 48  49 0
 3-21G
 ****


