%nproc=1
%NoSave
%Mem=1900MB
#P OB98/GEN NMR

erre ene a

0 1
  C       25.523     -97.765      -8.432
  O       26.291     -96.660      -8.003
  H       24.480     -97.450      -8.530
  H       25.577     -98.566      -7.691
  H       25.868     -98.132      -9.402
  P       27.889     -96.769      -8.037
  C       28.200     -94.210      -8.107
  O       28.455     -95.412      -7.395
  C       26.811     -93.664      -7.767
  O       26.758     -93.391      -6.333
  C       26.457     -92.351      -8.495
  O       25.041     -92.352      -8.713
  C       26.848     -91.324      -7.449
  O       26.329     -90.054      -7.743
  C       26.331     -92.022      -6.190
  N       26.827     -91.435      -4.951
  C       26.227     -90.260      -4.516
  O       25.296     -89.707      -5.099
  N       26.745     -89.717      -3.369
  C       27.780     -90.222      -2.641
  O       28.191     -89.707      -1.608
  C       28.393     -91.452      -3.168
  C       27.896     -91.994      -4.281
  O       28.486     -97.143      -9.351
  O       28.216     -97.859      -6.910
  H       28.350     -98.731      -7.328
  H       25.369     -90.111      -7.937
  H       26.321     -88.864      -3.038
  H       29.232     -91.866      -2.625
  H       28.323     -92.899      -4.701
  H       25.236     -92.027      -6.171
  H       27.936     -91.217      -7.412
  H       26.975     -92.240      -9.451
  H       26.064     -94.441      -7.969
  H       28.261     -94.427      -9.178
  H       28.965     -93.470      -7.849
  P       24.370     -92.091     -10.148
  C       22.151     -93.134      -9.349
  O       22.774     -92.027      -9.985
  O       24.818     -93.051     -11.201
  O       24.775     -90.594     -10.543
  H       24.919     -90.544     -11.506
  H       21.095     -92.970      -9.302
  H       22.539     -93.241      -8.358
  H       22.350     -94.025      -9.908

 6  7  8  9  10  11  12  13  14  15  16  27  31  32  33  34  35 0
 6-311+G(2d,p)
 ****
 36  37 0
 6-311+G(2d,p)
 ****
 1  2  3  4  5  17  18  19  20  21  22  23  24  25 0
 3-21G
 ****
 26  28  29  30  38  39  40  41  42  43  44  45 0
 3-21G
 ****


