%nproc=1
%NoSave
%Mem=1900MB
#P OB98/GEN NMR

erre ene a

0 1
  C      -35.512       3.638      -7.606
  O      -34.210       4.178      -7.594
  H      -35.866       3.601      -8.639
  H      -36.180       4.281      -7.028
  H      -35.530       2.626      -7.193
  P      -33.285       3.932      -6.313
  C      -30.762       3.759      -5.801
  O      -31.763       3.812      -6.809
  C      -29.592       2.865      -6.212
  O      -30.017       1.485      -6.226
  C      -29.076       3.183      -7.618
  O      -28.100       4.209      -7.667
  C      -28.484       1.842      -8.046
  O      -27.112       1.723      -7.637
  C      -29.355       0.819      -7.310
  N      -30.385      -2.979     -10.575
  C      -29.165      -2.595     -10.048
  N      -28.091      -3.291     -10.478
  N      -29.026      -1.613      -9.197
  C      -30.176      -0.949      -8.940
  C      -31.438      -1.224      -9.417
  C      -31.595      -2.359     -10.301
  O      -32.654      -2.749     -10.781
  N      -32.358      -0.307      -8.968
  C      -31.635       0.566      -8.295
  N      -30.321       0.176      -8.182
  O      -33.630       2.423      -5.890
  O      -33.514       4.867      -5.164
  H      -27.062       1.925      -6.683
  H      -33.542       2.327      -4.924
  H      -30.433      -3.760     -11.203
  H      -32.018       1.468      -7.831
  H      -28.746       0.020      -6.869
  H      -28.498       1.741      -9.134
  H      -28.129      -3.997     -11.194
  H      -29.905       3.419      -8.290
  H      -27.162      -2.922     -10.264
  H      -28.794       2.947      -5.463
  H      -31.242       3.358      -4.907
  H      -30.409       4.766      -5.562
  P      -27.607       4.806      -9.065
  C      -27.340       7.208     -10.090
  O      -27.659       6.398      -8.980
  O      -28.812       4.449     -10.055
  O      -26.300       4.282      -9.562
  H      -28.607       3.647     -10.572
  H      -27.438       8.239      -9.819
  H      -28.007       6.986     -10.897
  H      -26.333       7.014     -10.396

 6  7  8  9  10  11  12  13  14  15  26  29  33  34 0
 6-311+G(2d,p)
 ****
 36  38  39  40  41 0
 6-311+G(2d,p)
 ****
 1  2  3  4  5  16  17  18  19  20  21  22  23  24  25 0
 3-21G
 ****
 27  28  30  31  32  35  37  42  43  44  45  46  47 0
 3-21G
 ****
 48  49 0
 3-21G
 ****


