%nproc=1
%NoSave
%Mem=1900MB
#P OB98/GEN NMR

erre ene a

0 1
  C     -423.220      38.524     608.433
  O     -424.461      39.181     608.696
  P     -425.020      40.441     607.886
  C     -426.645      39.129     606.295
  O     -425.485      39.932     606.440
  C     -427.909      39.953     605.921
  O     -427.750      40.462     604.569
  C     -429.140      39.045     605.909
  O     -429.823      38.782     607.120
  C     -430.019      39.634     604.818
  O     -430.983      40.558     605.320
  C     -429.021      40.343     603.899
  N     -431.059      39.109     599.363
  C     -431.635      39.762     600.430
  N     -432.942      40.089     600.309
  N     -431.002      40.054     601.539
  C     -429.733      39.591     601.569
  C     -429.045      38.919     600.591
  C     -429.747      38.654     599.346
  O     -429.276      38.090     598.360
  N     -427.776      38.595     600.980
  C     -427.695      39.048     602.212
  N     -428.856      39.675     602.611
  O     -424.174      41.667     607.937
  O     -426.409      40.776     608.625
  H     -431.624      40.746     604.617
  H     -426.528      41.751     608.572
  H     -431.585      38.929     598.533
  H     -426.830      38.958     602.858
  H     -429.351      41.365     603.667
  H     -430.588      38.838     604.318
  H     -433.518      39.792     599.536
  H     -428.821      38.065     605.539
  H     -433.424      40.376     601.161
  H     -428.000      40.823     606.574
  H     -426.793      38.617     607.251
  H     -426.473      38.353     605.544
  P     -430.123      37.322     607.731
  C     -428.357      37.614     609.562
  O     -428.798      36.823     608.471
  O     -430.197      36.374     606.452
  O     -431.383      37.230     608.542
  H     -430.636      35.522     606.689
  H     -427.307      37.364     609.778
  H     -428.960      37.398     610.453
  H     -428.417      38.677     609.321
  H     -423.092      37.714     609.121
  H     -422.416      39.221     608.549
  H     -423.222      38.145     607.432

 3  4  5  6  7  8  9  10  11  12  23  26  30  31 0
 6-311+G(2d,p)
 ****
 33  35  36  37  38 0
 6-311+G(2d,p)
 ****
 1  2  13  14  15  16  17  18  19  20  21  22  24  25 0
 3-21G
 ****
 27  28  29  32  34  39  40  41  42  43  44  45  46  47  48  49 0
 3-21G
 ****


