%nproc=1
%NoSave
%Mem=1900MB
#P OB98/GEN NMR

erre ene a

0 1
  C     -199.284      29.387    -579.348
  O     -198.947      28.117    -578.841
  H     -198.362      29.965    -579.488
  H     -199.921      29.923    -578.645
  H     -199.787      29.303    -580.319
  P     -200.106      27.011    -578.704
  C     -200.963      26.686    -576.284
  O     -201.040      27.462    -577.480
  C     -199.690      27.059    -575.505
  O     -199.542      28.498    -575.455
  C     -199.707      26.602    -574.057
  O     -199.458      25.207    -573.955
  C     -198.615      27.486    -573.465
  O     -197.308      26.948    -573.725
  C     -198.825      28.806    -574.241
  N     -199.536      29.803    -573.433
  C     -198.755      30.761    -572.802
  O     -197.524      30.808    -572.900
  N     -199.426      31.648    -572.000
  C     -200.751      31.572    -571.675
  O     -201.264      32.222    -570.758
  C     -201.544      30.580    -572.413
  C     -200.911      29.749    -573.246
  O     -199.637      25.594    -578.651
  O     -201.037      27.282    -579.982
  H     -200.840      26.609    -580.669
  H     -196.676      27.620    -573.411
  H     -198.859      32.314    -571.501
  H     -202.617      30.532    -572.240
  H     -201.464      28.989    -573.791
  H     -197.850      29.241    -574.546
  H     -198.722      27.594    -572.384
  H     -200.662      26.855    -573.588
  H     -198.828      26.645    -576.054
  H     -200.921      25.627    -576.552
  H     -201.856      26.878    -575.676
  P     -199.586      24.466    -572.526
  C     -197.441      23.636    -571.368
  O     -198.249      24.777    -571.688
  O     -199.972      23.020    -572.595
  O     -200.699      25.319    -571.751
  H     -201.375      24.709    -571.395
  H     -196.582      23.951    -570.813
  H     -197.126      23.157    -572.272
  H     -198.012      22.948    -570.780

 6  7  8  9  10  11  12  13  14  15  16  27  31  32  33  34  35 0
 6-311+G(2d,p)
 ****
 36  37 0
 6-311+G(2d,p)
 ****
 1  2  3  4  5  17  18  19  20  21  22  23  24  25 0
 3-21G
 ****
 26  28  29  30  38  39  40  41  42  43  44  45 0
 3-21G
 ****


