%nproc=1
%NoSave
%Mem=1900MB
#P OB98/GEN NMR

erre ene a

0 1
  C      -39.276     100.612     -86.576
  O      -40.363      99.712     -86.680
  H      -39.319     101.311     -87.414
  H      -38.332     100.061     -86.623
  H      -39.334     101.175     -85.640
  P      -40.590      98.709     -85.446
  C      -39.154      96.686     -84.586
  O      -39.550      97.508     -85.668
  C      -37.921      95.860     -84.959
  O      -38.270      94.975     -86.053
  C      -36.727      96.706     -85.405
  O      -35.530      96.070     -84.953
  C      -36.793      96.633     -86.921
  O      -35.530      96.892     -87.526
  C      -37.338      95.211     -87.129
  N      -37.970      95.041     -88.435
  C      -37.135      94.665     -89.492
  O      -35.929      94.505     -89.303
  N      -37.674      94.520     -90.744
  C      -38.927      94.790     -90.941
  N      -39.395      94.651     -92.210
  C      -39.835      95.234     -89.865
  C      -39.298      95.327     -88.649
  O      -42.006      98.059     -85.810
  O      -40.536      99.359     -84.105
  H      -35.633      96.833     -88.502
  H      -42.085      97.802     -86.744
  H      -40.869      95.458     -90.080
  H      -39.894      95.637     -87.800
  H      -36.531      94.472     -87.038
  H      -37.506      97.372     -87.302
  H      -36.768      97.729     -85.027
  H      -37.658      95.224     -84.107
  H      -38.734      94.367     -92.922
  H      -39.969      96.013     -84.302
  H      -40.336      94.887     -92.489
  H      -38.934      97.333     -83.731
  P      -34.825      96.580     -83.610
  C      -33.341      98.567     -82.873
  O      -33.827      97.785     -83.959
  O      -34.256      95.517     -82.733
  O      -36.023      97.340     -82.852
  H      -35.961      97.122     -81.902
  H      -32.690      99.330     -83.246
  H      -32.802      97.939     -82.194
  H      -34.165      99.019     -82.362

 6  7  8  9  10  11  12  13  14  15  16  26  30  31  32  33  35 0
 6-311+G(2d,p)
 ****
 37  38 0
 6-311+G(2d,p)
 ****
 1  2  3  4  5  17  18  19  20  21  22  23  24  25 0
 3-21G
 ****
 27  28  29  34  36  39  40  41  42  43  44  45  46 0
 3-21G
 ****


