%nproc=1
%NoSave
%Mem=1900MB
#P OB98/GEN NMR

erre ene a

0 1
  C      254.691     449.562    -628.202
  O      254.606     448.798    -629.389
  P      253.402     449.004    -630.439
  C      252.439     446.865    -629.344
  O      252.689     447.569    -630.551
  C      251.580     445.624    -629.621
  O      250.263     446.064    -630.056
  C      252.140     444.696    -630.708
  O      251.805     443.354    -630.332
  C      251.362     445.120    -631.944
  O      251.340     444.103    -632.936
  C      250.001     445.446    -631.335
  N      249.195     446.319    -632.186
  C      248.532     445.737    -633.272
  O      248.649     444.537    -633.510
  N      247.755     446.537    -634.064
  C      247.709     447.813    -633.850
  N      246.867     448.550    -634.630
  C      248.476     448.482    -632.782
  C      249.171     447.676    -631.987
  O      253.804     449.602    -631.742
  O      252.324     449.856    -629.626
  H      250.776     443.371    -632.620
  H      252.485     450.830    -629.665
  H      248.427     449.558    -632.659
  H      249.746     448.082    -631.159
  H      249.445     444.516    -631.116
  H      251.827     446.010    -632.378
  H      253.229     444.780    -630.821
  H      251.447     445.077    -628.680
  H      246.234     448.042    -635.227
  H      251.893     447.527    -628.665
  H      246.537     449.468    -634.326
  H      253.385     446.587    -628.869
  P      253.007     442.337    -629.998
  C      252.553     440.486    -631.750
  O      252.529     440.858    -630.401
  O      252.943     442.286    -628.388
  O      254.372     442.751    -630.434
  H      253.824     442.052    -628.042
  H      252.202     439.456    -631.836
  H      253.563     440.542    -632.155
  H      251.883     441.127    -632.341
  H      255.560     449.269    -627.651
  H      253.818     449.395    -627.607
  H      254.760     450.600    -628.450

 3  4  5  6  7  8  9  10  11  12  13  23  27  28  29  30  32 0
 6-311+G(2d,p)
 ****
 34  35 0
 6-311+G(2d,p)
 ****
 1  2  14  15  16  17  18  19  20  21  22  24  25  26 0
 3-21G
 ****
 31  33  36  37  38  39  40  41  42  43  44  45  46 0
 3-21G
 ****


