%nproc=1
%NoSave
%Mem=1900MB
#P OB98/GEN NMR

erre ene a

0 1
  C      -36.111     -59.844     -24.554
  O      -36.731     -58.658     -24.109
  H      -36.693     -60.252     -25.383
  H      -36.091     -60.579     -23.744
  H      -35.093     -59.653     -24.902
  P      -35.924     -57.686     -23.126
  C      -37.731     -57.158     -21.360
  O      -36.991     -56.682     -22.475
  C      -39.017     -56.344     -21.173
  O      -39.778     -56.376     -22.407
  C      -39.909     -56.947     -20.083
  O      -40.724     -55.964     -19.452
  C      -40.799     -57.898     -20.867
  O      -42.026     -58.194     -20.201
  C      -40.977     -57.134     -22.178
  N      -44.384     -60.007     -24.650
  C      -44.469     -59.438     -23.395
  N      -45.615     -59.662     -22.710
  N      -43.510     -58.735     -22.851
  C      -42.398     -58.653     -23.619
  C      -42.186     -59.192     -24.868
  C      -43.268     -59.940     -25.473
  O      -43.237     -60.484     -26.572
  N      -40.926     -58.905     -25.330
  C      -40.375     -58.199     -24.363
  N      -41.238     -57.998     -23.314
  O      -35.115     -56.730     -24.124
  O      -35.010     -58.365     -22.152
  H      -42.465     -58.906     -20.702
  H      -34.344     -56.342     -23.671
  H      -45.162     -60.514     -25.033
  H      -39.370     -57.799     -24.379
  H      -41.812     -56.427     -22.103
  H      -40.264     -58.842     -20.993
  H      -46.285     -60.354     -23.009
  H      -39.343     -57.480     -19.323
  H      -45.571     -59.527     -21.697
  H      -38.772     -55.294     -20.979
  H      -37.085     -57.064     -20.485
  H      -37.960     -58.218     -21.481
  P      -40.931     -56.044     -17.866
  C      -43.515     -56.594     -18.014
  O      -42.466     -55.800     -17.506
  O      -40.196     -54.735     -17.321
  O      -40.392     -57.291     -17.236
  H      -39.431     -54.979     -16.768
  H      -44.449     -56.238     -17.632
  H      -43.371     -57.611     -17.713
  H      -43.521     -56.536     -19.082

 6  7  8  9  10  11  12  13  14  15  26  29  33  34 0
 6-311+G(2d,p)
 ****
 36  38  39  40  41 0
 6-311+G(2d,p)
 ****
 1  2  3  4  5  16  17  18  19  20  21  22  23  24  25 0
 3-21G
 ****
 27  28  30  31  32  35  37  42  43  44  45  46  47 0
 3-21G
 ****
 48  49 0
 3-21G
 ****


