%nproc=1
%NoSave
%Mem=1900MB
#P OB98/GEN NMR

erre ene a

0 1
  C      214.035     -48.785     104.729
  O      213.683     -47.503     105.211
  H      213.919     -49.511     105.539
  H      215.078     -48.789     104.398
  H      213.381     -49.070     103.900
  P      213.847     -46.285     104.179
  C      216.180     -45.485     104.974
  O      214.788     -45.206     104.903
  C      216.793     -44.828     106.210
  O      218.191     -45.169     106.328
  C      216.711     -43.303     106.219
  O      215.451     -42.865     106.697
  C      217.852     -42.954     107.162
  O      217.451     -43.114     108.542
  C      218.913     -43.994     106.783
  N      223.742     -42.839     105.852
  C      223.118     -43.166     107.037
  N      223.883     -43.153     108.151
  N      221.847     -43.464     107.132
  C      221.190     -43.377     105.951
  C      221.697     -43.066     104.710
  C      223.115     -42.792     104.611
  O      223.743     -42.581     103.579
  N      220.717     -43.099     103.751
  C      219.617     -43.399     104.417
  N      219.852     -43.570     105.757
  O      212.404     -45.582     104.196
  O      214.241     -46.666     102.793
  H      218.230     -42.997     109.115
  H      212.191     -45.284     103.293
  H      224.730     -42.650     105.833
  H      218.635     -43.513     103.976
  H      219.516     -44.300     107.645
  H      218.160     -41.913     107.051
  H      224.767     -42.662     108.190
  H      216.923     -42.891     105.224
  H      223.407     -43.319     109.029
  H      216.284     -45.245     107.089
  H      216.667     -45.092     104.074
  H      216.328     -46.567     105.019
  P      214.774     -41.595     105.994
  C      215.523     -39.722     107.628
  O      214.449     -40.514     107.135
  O      213.328     -42.145     105.578
  O      215.510     -41.074     104.807
  H      213.295     -42.301     104.616
  H      215.157     -39.052     108.378
  H      215.949     -39.159     106.824
  H      216.270     -40.359     108.053

 6  7  8  9  10  11  12  13  14  15  26  29  33  34 0
 6-311+G(2d,p)
 ****
 36  38  39  40  41 0
 6-311+G(2d,p)
 ****
 1  2  3  4  5  16  17  18  19  20  21  22  23  24  25 0
 3-21G
 ****
 27  28  30  31  32  35  37  42  43  44  45  46  47 0
 3-21G
 ****
 48  49 0
 3-21G
 ****


