%nproc=1
%NoSave
%Mem=1900MB
#P OB98/GEN NMR

erre ene a

0 1
  C       70.685       9.957     -27.539
  O       70.675       9.777     -28.946
  P       70.659      11.092     -29.867
  C       68.227      11.562     -30.663
  O       69.217      11.767     -29.665
  C       67.363      10.356     -30.308
  O       66.738      10.538     -29.019
  C       66.213      10.104     -31.277
  O       66.634       9.415     -32.443
  C       65.307       9.221     -30.435
  O       65.794       7.866     -30.445
  C       65.469       9.836     -29.037
  N       61.281      10.482     -26.276
  C       62.229       9.481     -26.217
  N       61.998       8.482     -25.340
  N       63.312       9.462     -26.952
  C       63.406      10.524     -27.792
  C       62.532      11.578     -27.938
  C       61.332      11.578     -27.128
  O       60.430      12.407     -27.170
  N       62.972      12.466     -28.881
  C       64.111      11.957     -29.308
  N       64.394      10.757     -28.709
  O       70.581      10.500     -31.352
  O       71.828      11.996     -29.682
  H       65.296       7.384     -29.756
  H       70.835      11.186     -31.997
  H       60.459      10.447     -25.692
  H       64.749      12.410     -30.056
  H       65.510       9.069     -28.257
  H       64.278       9.192     -30.804
  H       61.153       8.405     -24.792
  H       65.687      11.035     -31.523
  H       62.646       7.703     -25.321
  H       68.015       9.474     -30.246
  H       68.715      11.391     -31.626
  H       67.608      12.462     -30.746
  P       65.544       9.237     -33.609
  C       64.666       6.795     -33.750
  O       64.580       8.057     -33.116
  O       66.389       8.575     -34.795
  O       64.875      10.505     -34.027
  H       65.989       8.786     -35.660
  H       64.150       6.056     -33.131
  H       65.707       6.484     -33.870
  H       64.177       6.838     -34.729
  H       70.695       9.002     -27.057
  H       69.810      10.497     -27.242
  H       71.557      10.508     -27.256

 3  4  5  6  7  8  9  10  11  12  23  26  30  31 0
 6-311+G(2d,p)
 ****
 33  35  36  37  38 0
 6-311+G(2d,p)
 ****
 1  2  13  14  15  16  17  18  19  20  21  22  24  25 0
 3-21G
 ****
 27  28  29  32  34  39  40  41  42  43  44  45  46  47  48  49 0
 3-21G
 ****


