%nproc=1
%NoSave
%Mem=1900MB
#P OB98/GEN NMR

erre ene a

0 1
  C      786.219     482.584     589.356
  O      786.624     483.661     590.180
  H      786.059     482.943     588.334
  H      787.011     481.828     589.343
  H      785.309     482.124     589.739
  P      785.512     484.737     590.587
  C      785.785     486.477     588.676
  O      786.030     486.162     590.040
  C      786.317     487.880     588.350
  O      785.475     488.858     589.046
  C      787.782     488.127     588.780
  O      788.411     488.921     587.770
  C      787.639     488.945     590.049
  O      788.774     489.769     590.305
  C      786.373     489.748     589.748
  N      786.286     493.660     593.001
  C      786.766     493.543     591.748
  N      786.696     492.477     590.928
  C      786.008     491.475     591.501
  C      785.454     491.445     592.765
  C      785.635     492.597     593.549
  N      785.216     492.704     594.854
  N      784.858     490.221     593.020
  C      785.077     489.504     591.912
  N      785.769     490.227     590.973
  O      785.706     484.848     592.176
  O      784.104     484.382     590.217
  H      789.070     490.161     589.465
  H      785.165     484.172     592.613
  H      787.269     494.419     591.349
  H      784.792     488.478     591.776
  H      786.556     490.617     589.110
  H      787.477     488.278     590.903
  H      788.353     487.195     588.933
  H      786.191     488.055     587.282
  H      784.712     486.438     588.493
  H      785.486     493.536     595.368
  H      784.826     491.886     595.306
  H      786.283     485.732     588.040
  P      789.121     488.153     586.550
  C      791.159     487.289     587.931
  O      790.696     488.082     586.837
  O      789.009     489.197     585.340
  O      788.474     486.837     586.210
  H      788.908     488.728     584.495
  H      792.226     487.347     587.987
  H      790.864     486.271     587.784
  H      790.734     487.655     588.842

 6  7  8  9  10  11  12  13  14  15  25  28  32  33  34  35 0
 6-311+G(2d,p)
 ****
 36  39  40 0
 6-311+G(2d,p)
 ****
 1  2  3  4  5  16  17  18  19  20  21  22  23  24 0
 3-21G
 ****
 26  27  29  30  31  37  38  41  42  43  44  45  46  47 0
 3-21G
 ****
 48 0
 3-21G
 ****


