%nproc=1
%NoSave
%Mem=1900MB
#P OB98/GEN NMR

erre ene a

0 1
  C     -319.709     210.824    -811.645
  O     -319.972     209.679    -810.834
  P     -318.708     209.002    -810.120
  C     -319.619     209.506    -807.740
  O     -318.553     209.676    -808.669
  C     -319.447     210.461    -806.554
  O     -319.543     211.841    -806.935
  C     -320.494     210.260    -805.466
  O     -320.153     209.137    -804.659
  C     -320.421     211.580    -804.715
  O     -319.352     211.569    -803.743
  C     -320.108     212.594    -805.830
  N     -323.165     216.536    -804.912
  C     -322.178     215.972    -804.121
  N     -321.954     216.561    -802.929
  N     -321.479     214.931    -804.475
  C     -321.799     214.446    -805.693
  C     -322.736     214.935    -806.580
  C     -323.514     216.088    -806.174
  O     -324.382     216.629    -806.845
  N     -322.748     214.213    -807.748
  C     -321.905     213.215    -807.514
  N     -321.259     213.349    -806.313
  O     -317.459     209.580    -810.948
  O     -318.738     207.514    -810.139
  H     -319.680     211.171    -802.918
  H     -317.062     208.871    -811.478
  H     -323.680     217.324    -804.585
  H     -321.710     212.402    -808.190
  H     -319.368     213.327    -805.521
  H     -321.342     211.785    -804.162
  H     -322.460     217.368    -802.596
  H     -321.486     210.133    -805.910
  H     -321.231     216.168    -802.339
  H     -318.444     210.285    -806.132
  H     -319.647     208.476    -807.379
  H     -320.564     209.698    -808.253
  P     -320.837     207.729    -805.006
  C     -318.623     206.373    -805.013
  O     -319.739     206.834    -805.747
  O     -321.880     208.109    -806.161
  O     -321.524     207.076    -803.856
  H     -322.728     207.663    -805.994
  H     -318.289     205.424    -805.443
  H     -318.867     206.227    -803.962
  H     -317.816     207.106    -805.093
  H     -320.626     211.183    -812.064
  H     -319.037     210.556    -812.434
  H     -319.267     211.592    -811.045

 3  4  5  6  7  8  9  10  11  12  23  26  30  31 0
 6-311+G(2d,p)
 ****
 33  35  36  37  38 0
 6-311+G(2d,p)
 ****
 1  2  13  14  15  16  17  18  19  20  21  22  24  25 0
 3-21G
 ****
 27  28  29  32  34  39  40  41  42  43  44  45  46  47  48  49 0
 3-21G
 ****


