%nproc=1
%NoSave
%Mem=1900MB
#P OB98/GEN NMR

erre ene a

0 1
  C     -118.406      82.325      35.596
  O     -117.662      83.473      35.942
  H     -119.422      82.632      35.338
  H     -118.450      81.643      36.450
  H     -117.966      81.811      34.738
  P     -116.068      83.365      36.014
  C     -115.987      85.348      37.663
  O     -115.514      84.810      36.438
  C     -115.685      86.849      37.760
  O     -114.258      87.064      37.651
  C     -116.339      87.600      36.598
  O     -116.661      88.945      36.941
  C     -115.244      87.605      35.542
  O     -115.407      88.637      34.574
  C     -113.999      87.753      36.414
  N     -110.280      88.461      33.005
  C     -111.414      89.215      33.230
  N     -111.592      90.287      32.427
  N     -112.301      88.934      34.149
  C     -112.032      87.793      34.827
  C     -110.956      86.948      34.677
  C     -109.961      87.293      33.685
  O     -108.946      86.651      33.430
  N     -111.035      85.878      35.532
  C     -112.159      86.069      36.192
  N     -112.794      87.226      35.809
  O     -115.623      83.260      34.479
  O     -115.530      82.221      36.819
  H     -116.283      88.517      34.162
  H     -114.762      82.813      34.404
  H     -109.622      88.731      32.296
  H     -112.555      85.409      36.954
  H     -113.815      88.810      36.648
  H     -115.280      86.651      35.007
  H     -111.034      90.439      31.600
  H     -117.239      87.100      36.240
  H     -112.539      90.670      32.379
  H     -115.992      87.234      38.738
  H     -115.478      84.813      38.471
  H     -117.058      85.164      37.770
  P     -117.973      89.188      37.830
  C     -119.035      90.930      36.182
  O     -118.539      90.645      37.477
  O     -117.397      89.339      39.314
  O     -118.979      88.093      37.726
  H     -117.582      88.534      39.830
  H     -119.365      91.947      36.142
  H     -119.856      90.280      35.963
  H     -118.259      90.779      35.461

 6  7  8  9  10  11  12  13  14  15  26  29  33  34 0
 6-311+G(2d,p)
 ****
 36  38  39  40  41 0
 6-311+G(2d,p)
 ****
 1  2  3  4  5  16  17  18  19  20  21  22  23  24  25 0
 3-21G
 ****
 27  28  30  31  32  35  37  42  43  44  45  46  47 0
 3-21G
 ****
 48  49 0
 3-21G
 ****


