%nproc=1
%NoSave
%Mem=1900MB
#P OB98/GEN NMR

erre ene a

0 1
  C     -777.448     -52.688     -41.193
  O     -777.325     -54.097     -41.097
  H     -776.443     -52.256     -41.238
  H     -777.963     -52.298     -40.314
  H     -777.989     -52.417     -42.098
  P     -778.699     -54.924     -40.998
  C     -780.809     -54.773     -39.492
  O     -779.469     -54.356     -39.703
  C     -781.103     -54.888     -38.004
  O     -780.720     -53.683     -37.321
  C     -782.572     -55.130     -37.669
  O     -782.903     -56.510     -37.787
  C     -782.634     -54.643     -36.230
  O     -782.147     -55.643     -35.305
  C     -781.695     -53.419     -36.266
  N     -785.039     -50.101     -34.454
  C     -784.532     -51.249     -33.884
  N     -785.014     -51.594     -32.674
  N     -783.629     -52.000     -34.459
  C     -783.248     -51.551     -35.678
  C     -783.678     -50.415     -36.337
  C     -784.656     -49.583     -35.691
  O     -785.097     -48.511     -36.103
  N     -783.052     -50.292     -37.554
  C     -782.284     -51.366     -37.644
  N     -782.381     -52.161     -36.544
  O     -778.222     -56.382     -40.521
  O     -779.499     -54.987     -42.248
  H     -781.203     -55.781     -35.467
  H     -778.827     -57.047     -40.885
  H     -785.723     -49.560     -33.950
  H     -781.645     -51.601     -38.485
  H     -781.149     -53.289     -35.333
  H     -783.661     -54.408     -35.929
  H     -785.918     -51.264     -32.353
  H     -783.228     -54.518     -38.305
  H     -784.670     -52.455     -32.264
  H     -780.487     -55.705     -37.618
  H     -780.957     -55.745     -39.981
  H     -781.486     -54.046     -39.963
  P     -784.448     -56.885     -38.072
  C     -786.713     -56.125     -37.058
  O     -785.296     -56.168     -36.928
  O     -784.522     -58.437     -37.666
  O     -784.904     -56.640     -39.473
  H     -785.327     -58.831     -38.048
  H     -787.133     -55.614     -36.217
  H     -787.098     -57.123     -37.098
  H     -786.973     -55.606     -37.957

 6  7  8  9  10  11  12  13  14  15  26  29  33  34 0
 6-311+G(2d,p)
 ****
 36  38  39  40  41 0
 6-311+G(2d,p)
 ****
 1  2  3  4  5  16  17  18  19  20  21  22  23  24  25 0
 3-21G
 ****
 27  28  30  31  32  35  37  42  43  44  45  46  47 0
 3-21G
 ****
 48  49 0
 3-21G
 ****


