%nproc=1
%NoSave
%Mem=1900MB
#P OB98/GEN NMR

erre ene a

0 1
  C     -498.469    -481.934     169.591
  O     -497.099    -482.272     169.592
  H     -498.723    -481.519     168.611
  H     -498.660    -481.175     170.354
  H     -499.099    -482.809     169.775
  P     -496.557    -483.287     170.707
  C     -495.078    -481.583     171.958
  O     -495.112    -482.773     171.176
  C     -493.652    -481.045     172.120
  O     -492.894    -481.910     172.994
  C     -492.887    -481.014     170.788
  O     -493.111    -479.867     169.993
  C     -491.438    -481.081     171.266
  O     -490.949    -479.768     171.589
  C     -491.532    -481.943     172.528
  N     -488.076    -485.599     173.443
  C     -488.066    -484.272     173.838
  N     -486.969    -483.855     174.509
  N     -489.035    -483.433     173.577
  C     -490.022    -483.971     172.815
  C     -490.139    -485.259     172.356
  C     -489.084    -486.194     172.695
  O     -489.043    -487.378     172.372
  N     -491.284    -485.429     171.618
  C     -491.819    -484.230     171.570
  N     -491.102    -483.314     172.304
  O     -496.199    -484.610     169.869
  O     -497.520    -483.595     171.813
  H     -489.979    -479.770     171.493
  H     -496.263    -485.394     170.445
  H     -487.317    -486.205     173.700
  H     -492.735    -483.979     171.038
  H     -490.908    -481.540     173.338
  H     -490.778    -481.487     170.495
  H     -486.146    -484.432     174.631
  H     -493.097    -481.920     170.210
  H     -486.806    -482.852     174.573
  H     -493.687    -480.059     172.590
  H     -495.491    -481.835     172.933
  H     -495.722    -480.820     171.515
  P     -493.868    -480.014     168.586
  C     -491.620    -479.510     167.376
  O     -492.991    -479.212     167.504
  O     -495.159    -479.086     168.786
  O     -494.231    -481.400     168.204
  H     -495.926    -479.631     169.049
  H     -491.190    -478.890     166.617
  H     -491.502    -480.539     167.106
  H     -491.127    -479.327     168.308

 6  7  8  9  10  11  12  13  14  15  26  29  33  34 0
 6-311+G(2d,p)
 ****
 36  38  39  40  41 0
 6-311+G(2d,p)
 ****
 1  2  3  4  5  16  17  18  19  20  21  22  23  24  25 0
 3-21G
 ****
 27  28  30  31  32  35  37  42  43  44  45  46  47 0
 3-21G
 ****
 48  49 0
 3-21G
 ****


