%nproc=1
%NoSave
%Mem=1900MB
#P OB98/GEN NMR

erre ene a

0 1
  C     -264.356       8.699     288.754
  O     -265.097       9.898     288.704
  H     -263.597       8.794     289.537
  H     -263.851       8.516     287.804
  H     -265.010       7.858     289.002
  P     -266.158      10.109     287.515
  C     -264.421      11.008     285.848
  O     -265.299       9.931     286.158
  C     -263.792      10.839     284.465
  O     -262.843      11.916     284.225
  C     -263.046       9.509     284.278
  O     -263.414       8.926     283.023
  C     -261.577       9.924     284.249
  O     -260.764       8.981     283.560
  C     -261.679      11.321     283.618
  N     -260.482      12.137     283.842
  C     -259.324      11.731     283.166
  O     -259.336      10.714     282.464
  N     -258.172      12.456     283.337
  C     -258.163      13.470     284.151
  N     -256.991      14.142     284.288
  C     -259.351      13.900     284.916
  C     -260.467      13.201     284.711
  O     -266.946      11.378     287.596
  O     -267.059       8.791     287.543
  H     -259.843       9.318     283.544
  H     -267.916       8.968     287.073
  H     -259.294      14.744     285.591
  H     -261.394      13.454     285.224
  H     -261.847      11.250     282.538
  H     -261.202      10.010     285.283
  H     -263.239       8.795     285.069
  H     -264.587      10.959     283.708
  H     -256.196      13.816     283.745
  H     -263.639      11.057     286.616
  H     -256.862      14.940     284.892
  H     -265.004      11.942     285.867
  P     -264.145       7.496     283.101
  C     -262.211       5.971     282.283
  O     -263.015       6.379     283.379
  O     -264.585       7.226     281.585
  O     -265.315       7.467     284.034
  H     -265.536       7.430     281.472
  H     -261.510       5.232     282.610
  H     -261.682       6.816     281.894
  H     -262.834       5.557     281.518

 6  7  8  9  10  11  12  13  14  15  16  26  30  31  32  33  35 0
 6-311+G(2d,p)
 ****
 37  38 0
 6-311+G(2d,p)
 ****
 1  2  3  4  5  17  18  19  20  21  22  23  24  25 0
 3-21G
 ****
 27  28  29  34  36  39  40  41  42  43  44  45  46 0
 3-21G
 ****


