%nproc=1
%NoSave
%Mem=1900MB
#P OB98/GEN NMR

erre ene a

0 1
  C     -434.562     -24.377     -39.712
  O     -434.032     -23.063     -39.534
  P     -433.948     -22.491     -38.037
  C     -431.452     -21.767     -37.927
  O     -432.808     -21.354     -37.979
  C     -430.501     -20.568     -38.024
  O     -430.469     -20.043     -39.382
  C     -430.879     -19.403     -37.106
  O     -429.685     -18.718     -36.725
  C     -431.685     -18.501     -38.022
  O     -431.780     -17.169     -37.515
  C     -430.890     -18.661     -39.320
  N     -431.794     -15.024     -42.703
  C     -430.952     -15.028     -41.607
  N     -430.220     -13.916     -41.400
  N     -430.840     -16.043     -40.789
  C     -431.610     -17.100     -41.140
  C     -432.489     -17.217     -42.193
  C     -432.614     -16.075     -43.084
  O     -433.356     -16.012     -44.063
  N     -433.104     -18.443     -42.200
  C     -432.608     -19.062     -41.153
  N     -431.671     -18.312     -40.495
  O     -433.293     -23.707     -37.229
  O     -435.269     -22.099     -37.461
  H     -430.924     -16.720     -37.700
  H     -433.960     -24.121     -36.652
  H     -431.850     -14.212     -43.301
  H     -432.885     -20.054     -40.816
  H     -429.989     -18.028     -39.334
  H     -432.703     -18.899     -38.136
  H     -430.217     -13.119     -42.027
  H     -431.434     -19.690     -36.205
  H     -429.563     -13.909     -40.632
  H     -429.484     -20.907     -37.786
  H     -431.240     -22.462     -38.743
  H     -431.291     -22.328     -37.001
  P     -429.242     -18.824     -35.184
  C     -427.036     -19.984     -35.932
  O     -427.642     -18.945     -35.190
  O     -429.725     -20.289     -34.757
  O     -429.801     -17.762     -34.295
  H     -429.876     -20.329     -33.792
  H     -426.625     -19.568     -36.851
  H     -427.751     -20.782     -36.179
  H     -426.225     -20.415     -35.340
  H     -434.558     -24.625     -40.753
  H     -435.565     -24.410     -39.341
  H     -433.960     -25.080     -39.175

 3  4  5  6  7  8  9  10  11  12  23  26  30  31 0
 6-311+G(2d,p)
 ****
 33  35  36  37  38 0
 6-311+G(2d,p)
 ****
 1  2  13  14  15  16  17  18  19  20  21  22  24  25 0
 3-21G
 ****
 27  28  29  32  34  39  40  41  42  43  44  45  46  47  48  49 0
 3-21G
 ****


