%nproc=1
%NoSave
%Mem=1900MB
#P OB98/GEN NMR

erre ene a

0 1
  C      217.994    -199.572     306.336
  O      218.313    -198.661     305.281
  P      218.849    -197.216     305.732
  C      221.137    -195.991     305.821
  O      220.434    -197.172     305.466
  C      222.470    -195.908     305.072
  O      223.320    -197.041     305.342
  C      222.312    -195.860     303.559
  O      221.966    -194.548     303.149
  C      223.694    -196.296     303.086
  O      224.611    -195.178     303.064
  C      224.115    -197.314     304.158
  N      225.067    -200.798     300.601
  C      225.260    -199.426     300.573
  N      225.810    -198.919     299.450
  N      224.948    -198.633     301.563
  C      224.408    -199.280     302.625
  C      224.193    -200.628     302.779
  C      224.543    -201.497     301.675
  O      224.409    -202.717     301.656
  N      223.685    -200.918     304.022
  C      223.479    -199.731     304.563
  N      223.958    -198.709     303.784
  O      218.724    -197.257     307.326
  O      218.072    -196.084     305.147
  H      225.488    -195.493     302.780
  H      218.011    -196.657     307.618
  H      225.321    -201.360     299.808
  H      223.013    -199.562     305.523
  H      225.166    -197.186     304.440
  H      223.671    -196.691     302.068
  H      226.077    -199.472     298.654
  H      221.556    -196.591     303.236
  H      225.967    -197.919     299.416
  H      222.985    -195.005     305.420
  H      221.316    -195.968     306.896
  H      220.507    -195.124     305.590
  P      220.421    -194.122     303.217
  C      218.686    -193.858     305.129
  O      220.050    -193.904     304.759
  O      219.655    -195.479     302.822
  O      220.044    -193.008     302.302
  H      218.937    -195.275     302.194
  H      218.586    -194.228     306.152
  H      218.064    -194.470     304.467
  H      218.339    -192.819     305.089
  H      217.650    -200.495     305.918
  H      217.227    -199.151     306.951
  H      218.867    -199.752     306.928

 3  4  5  6  7  8  9  10  11  12  23  26  30  31 0
 6-311+G(2d,p)
 ****
 33  35  36  37  38 0
 6-311+G(2d,p)
 ****
 1  2  13  14  15  16  17  18  19  20  21  22  24  25 0
 3-21G
 ****
 27  28  29  32  34  39  40  41  42  43  44  45  46  47  48  49 0
 3-21G
 ****


