%nproc=1
%NoSave
%Mem=1900MB
#P OB98/GEN NMR

erre ene a

0 1
  C     -417.621      55.100    -554.015
  O     -416.227      55.142    -554.294
  P     -415.482      56.527    -554.634
  C     -415.490      58.102    -556.685
  O     -415.842      56.832    -556.169
  C     -415.286      58.037    -558.206
  O     -414.031      57.360    -558.470
  C     -416.390      57.260    -558.953
  O     -416.568      57.891    -560.212
  C     -415.787      55.880    -559.124
  O     -416.384      55.150    -560.185
  C     -414.316      56.238    -559.341
  N     -413.414      55.125    -559.064
  C     -412.868      54.447    -560.155
  O     -413.160      54.771    -561.317
  N     -412.007      53.409    -559.926
  C     -411.760      53.027    -558.703
  N     -410.844      52.025    -558.522
  C     -412.401      53.648    -557.528
  C     -413.186      54.686    -557.777
  O     -414.028      56.552    -554.307
  O     -416.345      57.639    -553.860
  H     -416.462      55.738    -560.961
  H     -416.071      57.750    -552.918
  H     -412.197      53.267    -556.537
  H     -413.683      55.216    -556.972
  H     -414.159      56.597    -560.370
  H     -415.928      55.299    -558.195
  H     -417.352      57.262    -558.408
  H     -415.212      59.057    -558.589
  H     -410.312      51.755    -559.335
  H     -414.550      58.423    -556.224
  H     -410.378      51.901    -557.626
  H     -416.259      58.843    -556.423
  P     -418.072      58.238    -560.701
  C     -420.238      56.841    -560.980
  O     -419.018      57.023    -560.282
  O     -417.951      58.038    -562.297
  O     -418.560      59.625    -560.399
  H     -418.624      58.593    -562.723
  H     -420.748      55.967    -560.561
  H     -420.063      56.670    -562.041
  H     -420.883      57.723    -560.843
  H     -417.915      54.091    -553.816
  H     -418.165      55.470    -554.859
  H     -417.832      55.708    -553.160

 3  4  5  6  7  8  9  10  11  12  13  23  27  28  29  30  32 0
 6-311+G(2d,p)
 ****
 34  35 0
 6-311+G(2d,p)
 ****
 1  2  14  15  16  17  18  19  20  21  22  24  25  26 0
 3-21G
 ****
 31  33  36  37  38  39  40  41  42  43  44  45  46 0
 3-21G
 ****


