%nproc=1
%NoSave
%Mem=1900MB
#P OB98/GEN NMR

erre ene a

0 1
  C     -166.634     202.571    -381.648
  O     -166.296     202.394    -383.012
  P     -165.817     200.997    -383.622
  C     -167.436     201.348    -385.620
  O     -166.123     201.004    -385.200
  C     -167.566     201.462    -387.152
  O     -166.742     202.545    -387.624
  C     -167.025     200.187    -387.818
  O     -167.848     199.040    -387.938
  C     -166.380     200.663    -389.118
  O     -167.247     200.496    -390.248
  C     -166.127     202.151    -388.860
  N     -161.735     202.420    -391.405
  C     -163.027     202.288    -391.898
  N     -163.128     202.011    -393.222
  N     -164.101     202.404    -391.157
  C     -163.827     202.589    -389.843
  C     -162.603     202.752    -389.242
  C     -161.426     202.666    -390.076
  O     -160.268     202.690    -389.666
  N     -162.707     202.845    -387.870
  C     -164.002     202.704    -387.639
  N     -164.717     202.512    -388.805
  O     -166.146     199.769    -382.830
  O     -164.211     201.169    -383.587
  H     -166.848     200.974    -390.998
  H     -163.822     200.292    -383.404
  H     -160.943     202.245    -392.009
  H     -164.454     202.702    -386.662
  H     -166.577     202.767    -389.649
  H     -165.470     200.088    -389.336
  H     -162.323     201.772    -393.783
  H     -166.185     199.841    -387.200
  H     -164.041     201.741    -393.573
  H     -168.589     201.709    -387.444
  H     -167.693     202.296    -385.146
  H     -168.142     200.605    -385.257
  P     -167.535     197.580    -387.382
  C     -169.943     197.087    -386.685
  O     -168.857     196.696    -387.509
  O     -167.382     197.790    -385.802
  O     -166.299     196.942    -387.935
  H     -166.858     197.053    -385.417
  H     -170.666     196.272    -386.623
  H     -170.439     197.953    -387.133
  H     -169.598     197.342    -385.678
  H     -166.923     203.588    -381.481
  H     -165.787     202.336    -381.037
  H     -167.447     201.923    -381.395

 3  4  5  6  7  8  9  10  11  12  23  26  30  31 0
 6-311+G(2d,p)
 ****
 33  35  36  37  38 0
 6-311+G(2d,p)
 ****
 1  2  13  14  15  16  17  18  19  20  21  22  24  25 0
 3-21G
 ****
 27  28  29  32  34  39  40  41  42  43  44  45  46  47  48  49 0
 3-21G
 ****


