%nproc=1
%NoSave
%Mem=1900MB
#P OB98/GEN NMR

erre ene a

0 1
  C      776.680    1172.272     252.877
  O      777.240    1173.086     253.909
  P      776.866    1172.790     255.433
  C      776.739    1175.228     256.268
  O      777.422    1173.981     256.352
  C      777.619    1176.386     256.816
  O      778.133    1176.033     258.137
  C      778.821    1176.661     255.898
  O      778.953    1178.039     255.573
  C      780.009    1176.054     256.668
  O      781.251    1176.646     256.338
  C      779.551    1176.194     258.136
  N      780.213    1175.221     259.003
  C      780.484    1175.641     260.311
  O      780.262    1176.806     260.721
  N      781.077    1174.710     261.115
  C      781.493    1173.465     260.751
  O      782.066    1172.674     261.506
  C      781.243    1173.095     259.342
  C      780.631    1173.984     258.542
  O      777.166    1171.415     255.926
  O      775.263    1173.057     255.456
  H      781.205    1177.619     256.566
  H      774.862    1172.385     256.049
  H      781.271    1174.955     262.078
  H      781.597    1172.131     258.996
  H      780.445    1173.751     257.505
  H      779.794    1177.201     258.525
  H      780.068    1174.990     256.416
  H      778.741    1176.174     254.919
  H      776.983    1177.269     256.900
  H      775.820    1175.171     256.864
  H      776.415    1175.410     255.244
  P      778.333    1178.742     254.263
  C      780.611    1179.572     253.324
  O      779.295    1179.907     253.809
  O      776.893    1179.098     254.350
  O      778.521    1177.612     253.122
  H      777.738    1177.572     252.556
  H      781.240    1180.434     253.394
  H      780.523    1179.287     252.263
  H      781.038    1178.763     253.888
  H      777.035    1172.608     251.925
  H      775.613    1172.344     252.905
  H      776.973    1171.254     253.027

 3  4  5  6  7  8  9  10  11  12  13  23  28  29  30  31  32 0
 6-311+G(2d,p)
 ****
 33  34 0
 6-311+G(2d,p)
 ****
 1  2  14  15  16  17  18  19  20  21  22  24  25  26  27 0
 3-21G
 ****
 35  36  37  38  39  40  41  42  43  44  45 0
 3-21G
 ****


