%nproc=1
%NoSave
%Mem=1900MB
#P OB98/GEN NMR

erre ene a

0 1
  C       95.032    -153.350     431.038
  O       94.293    -154.363     431.689
  H       94.748    -152.383     431.461
  H       94.799    -153.348     429.970
  H       96.103    -153.502     431.187
  P       94.624    -155.881     431.278
  C       95.175    -157.209     433.436
  O       94.171    -156.794     432.520
  C       94.553    -157.883     434.659
  O       93.814    -156.879     435.424
  C       93.572    -159.017     434.324
  O       93.690    -160.021     435.336
  C       92.213    -158.348     434.478
  O       91.160    -159.285     434.696
  C       92.502    -157.423     435.660
  N       87.796    -156.479     437.182
  C       88.538    -157.643     437.229
  N       87.938    -158.726     437.765
  N       89.766    -157.740     436.788
  C       90.254    -156.570     436.310
  C       89.623    -155.352     436.201
  C       88.255    -155.270     436.666
  O       87.540    -154.271     436.634
  N       90.451    -154.418     435.632
  C       91.578    -155.065     435.396
  N       91.508    -156.374     435.793
  O       96.223    -155.919     431.342
  O       94.104    -156.309     429.948
  H       90.397    -158.797     435.064
  H       96.600    -155.737     430.460
  H       86.851    -156.461     437.522
  H       92.464    -154.637     434.946
  H       92.519    -157.964     436.617
  H       91.974    -157.767     433.576
  H       87.013    -158.718     438.167
  H       93.719    -159.466     433.336
  H       88.482    -159.577     437.849
  H       95.359    -158.242     435.309
  H       95.745    -156.330     433.762
  H       95.857    -157.905     432.933
  P       93.648    -161.557     434.885
  C       95.974    -162.230     435.831
  O       94.563    -162.398     435.894
  O       94.509    -161.555     433.536
  O       92.271    -162.093     434.661
  H       94.212    -162.278     432.949
  H       96.441    -162.856     436.563
  H       96.221    -161.207     436.027
  H       96.322    -162.501     434.856

 6  7  8  9  10  11  12  13  14  15  26  29  33  34 0
 6-311+G(2d,p)
 ****
 36  38  39  40  41 0
 6-311+G(2d,p)
 ****
 1  2  3  4  5  16  17  18  19  20  21  22  23  24  25 0
 3-21G
 ****
 27  28  30  31  32  35  37  42  43  44  45  46  47 0
 3-21G
 ****
 48  49 0
 3-21G
 ****


