%nproc=1
%NoSave
%Mem=1900MB
#P OB98/GEN NMR

erre ene a

0 1
  C      172.003    -643.077     520.937
  O      171.964    -644.453     521.339
  P      171.548    -645.507     520.180
  C      169.677    -646.426     521.723
  O      170.786    -646.723     520.896
  C      169.087    -647.708     522.335
  O      168.424    -648.505     521.314
  C      170.133    -648.600     523.009
  O      169.501    -649.205     524.152
  C      170.404    -649.644     521.932
  O      171.070    -650.804     522.412
  C      168.988    -649.848     521.402
  N      169.064    -654.390     519.082
  C      169.135    -654.038     520.382
  N      169.117    -652.796     520.922
  C      168.992    -651.867     519.966
  C      168.903    -652.076     518.595
  C      168.933    -653.405     518.146
  N      168.889    -653.779     516.829
  N      168.809    -650.861     517.924
  C      168.902    -649.943     518.869
  N      168.941    -650.507     520.116
  O      172.944    -646.124     519.717
  O      170.801    -644.874     519.052
  H      170.557    -651.183     523.144
  H      173.254    -645.702     518.890
  H      169.244    -654.865     521.091
  H      168.966    -648.875     518.713
  H      168.376    -650.417     522.091
  H      171.052    -649.191     521.166
  H      171.022    -648.065     523.337
  H      168.319    -647.409     523.072
  H      168.895    -645.916     521.141
  H      168.918    -654.761     516.609
  H      168.802    -653.069     516.102
  H      169.976    -645.719     522.494
  P      169.922    -648.707     525.619
  C      169.876    -650.984     526.807
  O      169.189    -649.741     526.612
  O      168.937    -647.423     525.781
  O      171.355    -648.410     525.841
  H      168.025    -647.647     525.542
  H      169.342    -651.563     527.554
  H      170.898    -650.804     527.148
  H      169.878    -651.549     525.864
  H      172.286    -642.470     521.771
  H      171.035    -642.779     520.591
  H      172.716    -642.956     520.149

 3  4  5  6  7  8  9  10  11  12  22  25  29  30  31  32 0
 6-311+G(2d,p)
 ****
 33  36  37 0
 6-311+G(2d,p)
 ****
 1  2  13  14  15  16  17  18  19  20  21  23  24  26 0
 3-21G
 ****
 27  28  34  35  38  39  40  41  42  43  44  45  46  47  48 0
 3-21G
 ****


