%nproc=1
%NoSave
%Mem=1900MB
#P OB98/GEN NMR

erre ene a

0 1
  C      541.327     313.848     380.015
  O      541.360     312.912     381.100
  P      541.075     313.322     382.632
  C      543.344     312.847     383.772
  O      542.012     312.410     383.576
  C      544.320     311.663     383.677
  O      544.728     311.460     382.314
  C      545.623     311.826     384.451
  O      545.456     311.711     385.849
  C      546.479     310.727     383.829
  O      546.232     309.454     384.444
  C      545.971     310.699     382.363
  N      546.935     311.224     381.397
  C      548.121     310.484     381.253
  O      548.339     309.493     381.960
  N      549.025     310.893     380.323
  C      548.823     312.006     379.671
  N      549.759     312.349     378.737
  C      547.670     312.883     379.896
  C      546.764     312.422     380.774
  O      539.622     313.279     383.009
  O      541.672     314.803     382.800
  H      541.196     315.267     383.512
  H      546.828     308.813     384.000
  H      547.556     313.821     379.369
  H      545.872     313.015     381.002
  H      545.685     309.674     382.084
  H      547.550     310.931     383.916
  H      546.063     312.811     384.215
  H      543.792     310.762     384.029
  H      550.542     311.723     378.592
  H      543.424     313.298     384.765
  H      549.690     313.177     378.159
  H      543.590     313.613     383.030
  P      546.455     312.541     386.778
  C      546.950     310.498     388.314
  O      546.499     311.845     388.213
  O      545.679     313.931     387.049
  O      547.804     312.794     386.172
  H      546.322     314.668     387.033
  H      547.371     310.332     389.304
  H      547.709     310.279     387.553
  H      546.101     309.833     388.180
  H      541.548     313.340     379.099
  H      542.055     314.614     380.183
  H      540.354     314.288     379.953

 3  4  5  6  7  8  9  10  11  12  13  24  27  28  29  30  32 0
 6-311+G(2d,p)
 ****
 34  35 0
 6-311+G(2d,p)
 ****
 1  2  14  15  16  17  18  19  20  21  22  23  25  26 0
 3-21G
 ****
 31  33  36  37  38  39  40  41  42  43  44  45  46 0
 3-21G
 ****


