%nproc=1
%NoSave
%Mem=1900MB
#P OB98/GEN NMR

erre ene a

0 1
  C      -57.847     134.738    -754.048
  O      -57.221     134.145    -755.169
  P      -55.679     134.435    -755.488
  C      -56.351     135.543    -757.698
  O      -55.615     135.690    -756.491
  C      -55.632     136.219    -758.868
  O      -56.554     136.326    -759.986
  C      -55.104     137.634    -758.573
  O      -53.892     137.788    -759.322
  C      -56.179     138.527    -759.154
  O      -55.722     139.840    -759.426
  C      -56.558     137.720    -760.386
  N      -59.143     139.422    -764.459
  C      -57.823     139.232    -764.247
  N      -57.212     138.794    -763.129
  C      -58.111     138.551    -762.155
  C      -59.487     138.732    -762.224
  C      -60.009     139.176    -763.451
  N      -61.352     139.348    -763.697
  N      -60.072     138.428    -760.997
  C      -59.058     138.066    -760.229
  N      -57.873     138.074    -760.901
  O      -54.890     133.242    -755.921
  O      -55.108     135.028    -754.112
  H      -55.350     140.215    -758.612
  H      -54.557     134.359    -753.667
  H      -57.163     139.450    -765.093
  H      -59.136     137.801    -759.179
  H      -55.835     137.836    -761.202
  H      -57.018     138.601    -758.455
  H      -54.917     137.812    -757.505
  H      -54.815     135.565    -759.188
  H      -57.327     136.015    -757.557
  H      -61.624     139.542    -764.658
  H      -62.021     138.918    -763.069
  H      -56.502     134.482    -757.916
  P      -52.470     137.603    -758.601
  C      -52.497     140.033    -757.788
  O      -52.427     138.670    -757.401
  O      -51.285     137.604    -759.505
  O      -52.624     136.205    -757.824
  H      -51.734     135.863    -757.584
  H      -51.501     140.370    -758.120
  H      -52.811     140.632    -756.933
  H      -53.210     140.176    -758.609
  H      -58.869     134.426    -754.004
  H      -57.803     135.803    -754.137
  H      -57.342     134.434    -753.155

 3  4  5  6  7  8  9  10  11  12  22  25  29  30  31  32 0
 6-311+G(2d,p)
 ****
 33  36  37 0
 6-311+G(2d,p)
 ****
 1  2  13  14  15  16  17  18  19  20  21  23  24  26 0
 3-21G
 ****
 27  28  34  35  38  39  40  41  42  43  44  45  46  47  48 0
 3-21G
 ****


