%nproc=1
%NoSave
%Mem=1900MB
#P OB98/GEN NMR

erre ene a

0 1
  C      392.163     282.308     309.591
  O      391.550     283.561     309.858
  P      389.953     283.581     310.030
  C      388.000     284.825     308.846
  O      389.377     284.458     308.812
  C      387.669     285.829     307.743
  O      388.142     287.139     308.142
  C      388.286     285.498     306.380
  O      387.343     285.861     305.374
  C      389.480     286.419     306.301
  O      389.859     286.673     304.949
  C      388.967     287.647     307.073
  N      390.058     288.472     307.582
  C      390.711     289.298     306.658
  O      390.411     289.244     305.464
  N      391.716     290.121     307.099
  C      392.112     290.048     308.332
  N      393.105     290.886     308.722
  C      391.529     289.103     309.312
  C      390.506     288.370     308.875
  O      389.744     284.534     311.300
  O      389.331     282.240     310.219
  H      390.091     285.818     304.529
  H      388.962     284.262     311.812
  H      391.923     289.056     310.315
  H      390.004     287.666     309.527
  H      388.330     288.269     306.427
  H      390.340     285.974     306.819
  H      388.537     284.434     306.281
  H      386.573     285.897     307.658
  H      393.497     291.513     308.034
  H      387.782     285.288     309.811
  H      393.479     290.894     309.664
  H      387.384     283.928     308.750
  P      387.299     284.976     304.035
  C      387.786     285.540     301.577
  O      388.049     285.863     302.927
  O      385.764     285.145     303.593
  O      387.682     283.540     304.130
  H      385.585     284.592     302.810
  H      388.247     286.298     300.940
  H      386.711     285.521     301.388
  H      388.230     284.565     301.337
  H      393.221     282.441     309.501
  H      391.774     281.908     308.678
  H      391.956     281.631     310.393

 3  4  5  6  7  8  9  10  11  12  13  21  23  27  28  29  30  32 0
 6-311+G(2d,p)
 ****
 34  35 0
 6-311+G(2d,p)
 ****
 1  2  14  15  16  17  18  19  20  22  24  25  26 0
 3-21G
 ****
 31  33  36  37  38  39  40  41  42  43  44  45  46 0
 3-21G
 ****


