%nproc=1
%NoSave
%Mem=1900MB
#P OB98/GEN NMR

erre ene a

0 1
  C      197.975    -177.410      90.218
  O      197.897    -178.813      90.328
  H      198.754    -177.162      89.489
  H      198.244    -176.959      91.175
  H      197.025    -177.000      89.864
  P      196.965    -179.453      91.471
  C      194.571    -179.082      90.622
  O      195.663    -179.994      90.686
  C      193.352    -179.716      89.949
  O      193.785    -180.539      88.833
  C      192.519    -180.603      90.882
  O      191.132    -180.288      90.722
  C      192.803    -182.014      90.384
  O      191.757    -182.922      90.720
  C      193.024    -181.761      88.889
  N      193.713    -182.859      88.221
  C      192.907    -183.864      87.675
  O      191.682    -183.810      87.804
  N      193.503    -184.917      87.033
  C      194.796    -184.994      86.987
  N      195.325    -186.070      86.344
  C      195.690    -183.983      87.589
  C      195.084    -182.950      88.179
  O      196.674    -178.547      92.618
  O      197.716    -180.801      91.892
  H      190.899    -182.517      90.457
  H      197.398    -181.088      92.784
  H      196.760    -184.096      87.534
  H      195.662    -182.152      88.641
  H      192.068    -181.589      88.378
  H      193.731    -182.383      90.840
  H      192.781    -180.492      91.932
  H      192.744    -178.913      89.515
  H      194.680    -186.741      85.945
  H      194.892    -178.191      90.072
  H      196.317    -186.238      86.254
  H      194.304    -178.797      91.646
  P      190.427    -179.562      91.970
  C      190.914    -177.107      91.303
  O      189.931    -178.115      91.480
  O      191.653    -179.239      92.945
  O      189.389    -180.399      92.641
  H      191.696    -179.895      93.663
  H      190.443    -176.203      90.977
  H      191.623    -177.425      90.567
  H      191.417    -176.933      92.231

 6  7  8  9  10  11  12  13  14  15  16  26  30  31  32  33  35 0
 6-311+G(2d,p)
 ****
 37  38 0
 6-311+G(2d,p)
 ****
 1  2  3  4  5  17  18  19  20  21  22  23  24  25 0
 3-21G
 ****
 27  28  29  34  36  39  40  41  42  43  44  45  46 0
 3-21G
 ****


