%nproc=1
%NoSave
%Mem=1900MB
#P OB98/GEN NMR

erre ene a

0 1
  C     -445.118      15.123     -16.992
  O     -443.945      14.479     -16.499
  P     -443.598      14.661     -14.946
  C     -445.656      13.485     -13.807
  O     -444.277      13.448     -14.146
  C     -446.149      12.099     -13.346
  O     -445.943      11.155     -14.425
  C     -445.417      11.514     -12.142
  O     -446.220      10.482     -11.573
  C     -444.195      10.898     -12.799
  O     -443.566       9.943     -11.948
  C     -444.775      10.345     -14.123
  N     -443.823      10.386     -15.249
  C     -442.887       9.351     -15.372
  O     -442.813       8.401     -14.590
  N     -441.998       9.456     -16.409
  C     -441.973      10.452     -17.343
  O     -441.103      10.545     -18.205
  C     -443.056      11.437     -17.251
  C     -443.905      11.370     -16.224
  O     -444.452      15.939     -14.516
  O     -442.137      14.834     -14.671
  H     -442.746       9.651     -12.413
  H     -443.871      16.718     -14.412
  H     -441.277       8.752     -16.471
  H     -443.109      12.212     -18.019
  H     -444.705      12.110     -16.131
  H     -445.096       9.302     -14.007
  H     -443.455      11.682     -13.012
  H     -445.142      12.241     -11.373
  H     -447.233      12.157     -13.149
  H     -446.241      13.833     -14.666
  H     -445.815      14.219     -13.007
  P     -446.998      10.798     -10.205
  C     -449.149      11.984     -10.976
  O     -448.566      10.761     -10.554
  O     -446.534      12.001      -9.449
  O     -446.801       9.455      -9.358
  H     -446.967       9.635      -8.406
  H     -449.989      11.761     -11.647
  H     -448.431      12.615     -11.499
  H     -449.536      12.519     -10.102
  H     -445.225      14.917     -18.037
  H     -445.034      16.179     -16.843
  H     -445.974      14.755     -16.466

 3  4  5  6  7  8  9  10  11  12  13  23  28  29  30  31  32 0
 6-311+G(2d,p)
 ****
 33  34 0
 6-311+G(2d,p)
 ****
 1  2  14  15  16  17  18  19  20  21  22  24  25  26  27 0
 3-21G
 ****
 35  36  37  38  39  40  41  42  43  44  45 0
 3-21G
 ****


