%nproc=1
%NoSave
%Mem=1900MB
#P OB98/GEN NMR

erre ene a

0 1
  C      449.645    -292.354     -68.074
  O      450.847    -292.362     -68.814
  P      450.947    -292.900     -70.316
  C      449.970    -295.029     -71.434
  O      450.640    -294.478     -70.312
  C      449.811    -296.559     -71.355
  O      449.071    -296.898     -70.164
  C      448.981    -297.068     -72.539
  O      449.603    -297.315     -73.787
  C      448.174    -298.232     -71.986
  O      448.765    -299.501     -72.273
  C      448.173    -297.975     -70.472
  N      443.724    -299.817     -68.877
  C      444.919    -300.481     -69.087
  N      444.855    -301.832     -69.040
  N      446.051    -299.877     -69.335
  C      445.934    -298.531     -69.443
  C      444.809    -297.760     -69.243
  C      443.571    -298.439     -68.931
  O      442.476    -297.890     -68.827
  N      445.047    -296.437     -69.513
  C      446.301    -296.406     -69.907
  N      446.869    -297.662     -69.921
  O      452.092    -292.395     -71.133
  O      449.594    -292.293     -70.961
  H      448.252    -300.185     -71.797
  H      449.784    -292.076     -71.894
  H      442.861    -300.340     -68.768
  H      446.837    -295.516     -70.228
  H      448.545    -298.857     -69.932
  H      447.170    -298.251     -72.424
  H      443.980    -302.329     -69.001
  H      448.240    -296.288     -72.763
  H      445.668    -302.350     -69.354
  H      450.782    -297.051     -71.254
  H      450.543    -294.752     -72.329
  H      448.982    -294.573     -71.539
  P      448.866    -297.453     -75.202
  C      447.330    -299.247     -76.177
  O      448.508    -298.995     -75.439
  O      450.024    -297.187     -76.277
  O      447.729    -296.501     -75.416
  H      449.629    -296.907     -77.128
  H      447.025    -300.287     -76.022
  H      447.522    -299.096     -77.244
  H      446.513    -298.587     -75.857
  H      449.828    -291.950     -67.100
  H      449.276    -293.354     -67.981
  H      448.919    -291.752     -68.579

 3  4  5  6  7  8  9  10  11  12  23  26  30  31 0
 6-311+G(2d,p)
 ****
 33  35  36  37  38 0
 6-311+G(2d,p)
 ****
 1  2  13  14  15  16  17  18  19  20  21  22  24  25 0
 3-21G
 ****
 27  28  29  32  34  39  40  41  42  43  44  45  46  47  48  49 0
 3-21G
 ****


