%nproc=1
%NoSave
%Mem=1900MB
#P OB98/GEN NMR

erre ene a

0 1
  C      -86.047     320.464    -312.269
  O      -85.582     321.094    -311.087
  P      -84.075     320.875    -310.582
  C      -83.163     322.694    -312.154
  O      -83.118     321.319    -311.795
  C      -81.769     323.310    -312.109
  O      -81.153     322.992    -310.840
  C      -80.845     322.792    -313.209
  O      -79.991     323.859    -313.646
  C      -79.982     321.748    -312.513
  O      -78.720     321.587    -313.177
  C      -79.903     322.322    -311.096
  N      -76.945     318.440    -309.505
  C      -76.821     319.289    -310.546
  N      -77.660     320.283    -310.924
  C      -78.685     320.390    -310.063
  C      -78.938     319.594    -308.953
  C      -78.009     318.576    -308.682
  N      -78.124     317.718    -307.608
  N      -80.104     319.989    -308.328
  C      -80.539     321.008    -309.037
  N      -79.709     321.299    -310.090
  O      -83.783     319.523    -310.031
  O      -83.841     322.025    -309.497
  H      -78.368     322.485    -313.352
  H      -83.303     321.687    -308.758
  H      -75.938     319.154    -311.162
  H      -81.444     321.564    -308.836
  H      -79.098     323.062    -311.001
  H      -80.497     320.782    -312.530
  H      -81.388     322.372    -314.065
  H      -81.861     324.402    -312.169
  H      -83.808     323.221    -311.438
  H      -77.354     317.101    -307.424
  H      -78.817     317.929    -306.901
  H      -83.605     322.800    -313.152
  P      -79.606     323.853    -315.206
  C      -80.175     326.366    -315.571
  O      -80.491     325.023    -315.849
  O      -79.724     322.494    -315.810
  O      -78.112     324.431    -315.155
  H      -77.966     324.981    -314.356
  H      -80.907     327.011    -316.064
  H      -79.178     326.610    -315.956
  H      -80.208     326.555    -314.492
  H      -87.069     320.731    -312.437
  H      -85.969     319.402    -312.162
  H      -85.454     320.783    -313.100

 3  4  5  6  7  8  9  10  11  12  22  25  29  30  31  32 0
 6-311+G(2d,p)
 ****
 33  36  37 0
 6-311+G(2d,p)
 ****
 1  2  13  14  15  16  17  18  19  20  21  23  24  26 0
 3-21G
 ****
 27  28  34  35  38  39  40  41  42  43  44  45  46  47  48 0
 3-21G
 ****


