%nproc=1
%NoSave
%Mem=1900MB
#P OB98/GEN NMR

erre ene a

0 1
  C      283.206      20.780     -46.073
  O      282.370      19.624     -46.259
  P      282.972      18.337     -47.012
  C      284.462      17.416     -45.069
  O      283.339      17.225     -45.916
  C      285.381      16.193     -45.127
  O      286.684      16.510     -44.586
  C      284.895      15.001     -44.318
  O      283.844      14.308     -44.971
  C      286.171      14.182     -44.188
  O      286.391      13.381     -45.363
  C      287.245      15.281     -44.071
  N      287.733      15.450     -42.703
  C      288.590      14.465     -42.228
  O      288.893      13.464     -42.877
  N      289.066      14.650     -40.957
  C      288.720      15.665     -40.111
  O      289.165      15.766     -38.975
  C      287.747      16.630     -40.641
  C      287.300      16.477     -41.889
  O      284.424      18.858     -47.452
  O      282.201      17.860     -48.197
  H      287.185      12.839     -45.187
  H      284.712      18.384     -48.256
  H      289.712      13.962     -40.603
  H      287.428      17.437     -39.993
  H      286.580      17.183     -42.297
  H      288.097      15.047     -44.719
  H      286.145      13.496     -43.335
  H      284.578      15.331     -43.321
  H      285.512      15.914     -46.183
  H      284.119      17.556     -44.039
  H      284.997      18.317     -45.386
  P      282.487      14.099     -44.136
  C      280.908      15.633     -45.547
  O      281.304      14.325     -45.192
  O      282.488      15.416     -43.222
  O      282.459      12.814     -43.379
  H      282.882      16.178     -43.679
  H      281.752      16.326     -45.535
  H      280.143      15.980     -44.846
  H      280.481      15.608     -46.553
  H      282.655      21.540     -45.559
  H      283.520      21.150     -47.027
  H      284.065      20.510     -45.495

 3  4  5  6  7  8  9  10  11  12  13  23  28  29  30  31  32 0
 6-311+G(2d,p)
 ****
 33  34 0
 6-311+G(2d,p)
 ****
 1  2  14  15  16  17  18  19  20  21  22  24  25  26 0
 3-21G
 ****
 27  35  36  37  38  39  40  41  42  43  44  45 0
 3-21G
 ****


