%nproc=1
%NoSave
%Mem=1900MB
#P OB98/GEN NMR

erre ene a

0 1
  C     -550.535      17.418    -898.980
  O     -551.538      18.054    -898.220
  H     -549.653      18.066    -899.020
  H     -550.880      17.231    -900.000
  H     -550.260      16.465    -898.510
  P     -552.938      17.279    -898.070
  C     -553.549      18.290    -895.800
  O     -553.141      17.122    -896.480
  C     -552.737      18.468    -894.510
  O     -551.336      18.622    -894.880
  C     -553.129      19.692    -893.680
  O     -553.067      19.391    -892.300
  C     -552.060      20.721    -894.040
  O     -551.894      21.701    -893.010
  C     -550.839      19.822    -894.280
  N     -545.929      21.125    -894.780
  C     -546.576      20.382    -893.870
  N     -547.887      20.071    -893.800
  C     -548.546      20.573    -894.880
  C     -548.021      21.355    -895.900
  C     -546.652      21.638    -895.810
  N     -545.976      22.412    -896.740
  N     -549.021      21.694    -896.790
  C     -550.108      21.152    -896.320
  N     -549.880      20.468    -895.160
  O     -553.062      16.016    -898.870
  O     -553.987      18.424    -898.450
  H     -552.749      22.124    -892.850
  H     -553.761      19.273    -898.020
  H     -545.962      19.990    -893.050
  H     -551.108      21.235    -896.770
  H     -550.316      19.591    -893.340
  H     -552.348      21.247    -894.970
  H     -554.143      20.063    -893.930
  H     -552.812      17.550    -893.900
  H     -554.629      18.218    -895.530
  H     -544.991      22.552    -896.640
  H     -546.495      22.780    -897.530
  H     -553.429      19.153    -896.450
  P     -554.232      18.516    -891.640
  C     -552.807      17.348    -889.830
  O     -553.592      17.179    -891.010
  O     -555.456      18.315    -892.490
  O     -554.607      19.369    -890.340
  H     -555.590      19.313    -890.190
  H     -552.438      16.397    -889.508
  H     -553.411      17.776    -889.058
  H     -551.983      17.998    -890.040

 6  7  8  9  10  11  12  13  14  15  25  28  32  33  34  35 0
 6-311+G(2d,p)
 ****
 36  39  40 0
 6-311+G(2d,p)
 ****
 1  2  3  4  5  16  17  18  19  20  21  22  23  24 0
 3-21G
 ****
 26  27  29  30  31  37  38  41  42  43  44  45  46  47 0
 3-21G
 ****
 48 0
 3-21G
 ****


