%nproc=1
%NoSave
%Mem=1900MB
#P OB98/GEN NMR

erre ene a

0 1
  C      109.035      92.700     -90.184
  O      107.922      92.021     -89.634
  P      106.563      91.832     -90.460
  C      104.556      93.335     -91.041
  O      105.857      93.277     -90.478
  C      103.788      94.566     -90.553
  O      104.671      95.724     -90.565
  C      102.548      94.921     -91.383
  O      101.591      95.467     -90.469
  C      103.074      96.006     -92.311
  O      102.039      96.798     -92.875
  C      104.040      96.746     -91.367
  N      105.009      97.549     -92.102
  C      104.754      98.922     -92.185
  O      103.706      99.386     -91.721
  N      105.651      99.730     -92.837
  C      106.668      99.191     -93.444
  N      107.529     100.037     -94.072
  C      106.906      97.737     -93.489
  C      106.054      96.984     -92.793
  O      105.689      90.713     -89.998
  O      107.057      91.672     -91.973
  H      101.315      96.201     -93.165
  H      107.412      90.759     -92.125
  H      107.732      97.330     -94.054
  H      106.151      95.907     -92.763
  H      103.481      97.405     -90.684
  H      103.630      95.548     -93.135
  H      102.127      94.073     -91.928
  H      103.499      94.390     -89.506
  H      107.335     101.029     -94.001
  H      104.011      92.440     -90.730
  H      108.388      99.730     -94.505
  H      104.618      93.325     -92.132
  P      100.065      94.978     -90.473
  C       98.113      95.111     -92.131
  O       99.355      95.666     -91.734
  O       99.338      95.152     -89.175
  O      100.139      93.433     -90.896
  H       99.293      92.994     -90.680
  H       97.601      95.817     -92.793
  H       97.478      94.916     -91.262
  H       98.289      94.174     -92.671
  H      109.833      92.713     -89.471
  H      108.756      93.704     -90.426
  H      109.358      92.196     -91.071

 3  4  5  6  7  8  9  10  11  12  13  23  27  28  29  30  32 0
 6-311+G(2d,p)
 ****
 34  35 0
 6-311+G(2d,p)
 ****
 1  2  14  15  16  17  18  19  20  21  22  24  25  26 0
 3-21G
 ****
 31  33  36  37  38  39  40  41  42  43  44  45  46 0
 3-21G
 ****


