%nproc=1
%NoSave
%Mem=1900MB
#P OB98/GEN NMR

erre ene a

0 1
  C     -286.260    -137.563      40.069
  O     -286.808    -137.202      38.817
  H     -287.065    -137.600      40.808
  H     -285.523    -136.824      40.391
  H     -285.795    -138.550      40.003
  P     -285.777    -136.988      37.609
  C     -286.029    -134.415      37.886
  O     -285.145    -135.526      37.789
  C     -285.432    -133.368      38.821
  O     -285.311    -133.914      40.156
  C     -284.026    -132.924      38.440
  O     -284.019    -131.982      37.379
  C     -283.549    -132.323      39.749
  O     -283.973    -130.961      39.896
  C     -284.217    -133.231      40.799
  N     -283.262    -134.162      41.395
  C     -282.469    -133.641      42.415
  O     -282.548    -132.478      42.806
  N     -281.546    -134.497      42.946
  C     -281.309    -135.776      42.534
  O     -280.424    -136.472      43.018
  C     -282.165    -136.268      41.444
  C     -283.087    -135.449      40.928
  O     -286.733    -136.836      36.335
  O     -284.778    -138.084      37.432
  H     -286.692    -137.646      35.794
  H     -284.924    -130.949      39.663
  H     -280.960    -134.140      43.687
  H     -282.003    -137.277      41.092
  H     -283.723    -135.783      40.116
  H     -284.653    -132.628      41.604
  H     -282.464    -132.330      39.808
  H     -283.405    -133.796      38.200
  H     -286.110    -132.506      38.860
  H     -286.990    -134.744      38.292
  H     -286.193    -134.003      36.886
  P     -283.440    -132.461      35.960
  C     -281.920    -130.323      36.174
  O     -282.057    -131.675      35.765
  O     -284.465    -131.738      34.967
  O     -283.369    -133.945      35.826
  H     -284.843    -130.930      35.360
  H     -280.928    -129.984      35.959
  H     -282.102    -130.248      37.226
  H     -282.627    -129.717      35.646

 6  7  8  9  10  11  12  13  14  15  16  27  31  32  33  34  35 0
 6-311+G(2d,p)
 ****
 36  37 0
 6-311+G(2d,p)
 ****
 1  2  3  4  5  17  18  19  20  21  22  23  24  25 0
 3-21G
 ****
 26  28  29  30  38  39  40  41  42  43  44  45 0
 3-21G
 ****


