%nproc=1
%NoSave
%Mem=1900MB
#P OB98/GEN NMR

erre ene a

0 1
  C      119.100    -268.103     160.009
  O      118.255    -267.024     160.358
  P      116.669    -267.170     160.215
  C      116.227    -266.344     162.644
  O      116.005    -266.153     161.262
  C      115.417    -265.342     163.477
  O      116.034    -264.042     163.332
  C      113.966    -265.167     163.039
  O      113.237    -264.563     164.107
  C      114.104    -264.180     161.897
  O      112.881    -263.511     161.612
  C      115.262    -263.271     162.381
  N      116.116    -262.838     161.257
  C      115.878    -261.569     160.740
  O      115.059    -260.790     161.224
  N      116.554    -261.254     159.592
  C      117.387    -262.096     158.912
  O      117.734    -261.922     157.751
  C      117.779    -263.320     159.631
  C      117.115    -263.644     160.742
  O      116.385    -268.611     160.851
  O      116.150    -267.068     158.821
  H      112.735    -262.862     162.338
  H      116.331    -269.283     160.146
  H      116.274    -260.394     159.139
  H      118.549    -263.941     159.198
  H      117.345    -264.567     161.266
  H      114.884    -262.371     162.882
  H      114.406    -264.723     160.993
  H      113.476    -266.091     162.719
  H      115.470    -265.624     164.537
  H      117.294    -266.247     162.858
  H      115.944    -267.363     162.934
  P      112.459    -265.527     165.127
  C      112.812    -263.845     167.034
  O      111.871    -264.583     166.280
  O      113.216    -266.727     165.596
  O      111.146    -265.940     164.300
  H      110.752    -266.740     164.689
  H      112.335    -262.923     167.379
  H      113.690    -263.586     166.434
  H      113.121    -264.432     167.901
  H      120.120    -267.823     160.169
  H      118.956    -268.350     158.978
  H      118.863    -268.952     160.616

 3  4  5  6  7  8  9  10  11  12  13  23  28  29  30  31  32 0
 6-311+G(2d,p)
 ****
 33  34 0
 6-311+G(2d,p)
 ****
 1  2  14  15  16  17  18  19  20  21  22  24  25  26  27 0
 3-21G
 ****
 35  36  37  38  39  40  41  42  43  44  45 0
 3-21G
 ****


