%nproc=1
%NoSave
%Mem=1900MB
#P OB98/GEN NMR

erre ene a

0 1
  C     -593.076    -851.891    -238.297
  O     -592.839    -852.649    -237.119
  P     -593.250    -852.000    -235.715
  C     -593.675    -854.277    -234.454
  O     -592.888    -853.086    -234.606
  C     -592.804    -855.421    -233.931
  O     -592.080    -856.028    -235.020
  C     -591.753    -855.003    -232.921
  O     -592.301    -854.795    -231.631
  C     -590.780    -856.193    -232.999
  O     -591.276    -857.292    -232.219
  C     -590.831    -856.538    -234.492
  N     -589.688    -856.008    -235.254
  C     -588.515    -856.752    -235.201
  O     -588.410    -857.803    -234.559
  N     -587.447    -856.239    -235.887
  C     -587.421    -855.042    -236.554
  O     -586.426    -854.606    -237.120
  C     -588.677    -854.281    -236.538
  C     -589.741    -854.800    -235.902
  O     -594.844    -852.036    -235.825
  O     -592.651    -850.637    -235.513
  H     -595.149    -852.754    -236.408
  H     -591.484    -856.939    -231.336
  H     -586.586    -856.775    -235.875
  H     -588.685    -853.326    -237.055
  H     -590.669    -854.237    -235.886
  H     -590.863    -857.617    -234.644
  H     -589.789    -855.947    -232.625
  H     -591.239    -854.098    -233.255
  H     -593.466    -856.191    -233.508
  H     -594.095    -854.545    -235.411
  H     -594.494    -854.065    -233.754
  P     -591.458    -853.845    -230.634
  C     -593.362    -852.800    -229.172
  O     -592.314    -853.738    -229.284
  O     -591.643    -852.416    -231.338
  O     -590.039    -854.277    -230.466
  H     -592.545    -852.255    -231.645
  H     -594.029    -853.104    -228.370
  H     -593.943    -852.743    -230.107
  H     -592.949    -851.812    -228.929
  H     -592.753    -852.449    -239.151
  H     -592.531    -850.971    -238.245
  H     -594.122    -851.682    -238.382

 3  4  5  6  7  8  9  10  11  12  13  24  28  29  30  31  32 0
 6-311+G(2d,p)
 ****
 33  34 0
 6-311+G(2d,p)
 ****
 1  2  14  15  16  17  18  19  20  21  22  23  25  26  27 0
 3-21G
 ****
 35  36  37  38  39  40  41  42  43  44  45 0
 3-21G
 ****


