%nproc=1
%NoSave
%Mem=1900MB
#P OB98/GEN NMR

erre ene a

0 1
  C      260.721     254.211    -110.724
  O      260.940     253.219    -109.737
  P      262.348     253.212    -108.973
  C      262.660     250.634    -109.085
  O      262.519     251.782    -108.258
  C      263.781     249.727    -108.564
  O      265.072     250.327    -108.855
  C      263.725     249.483    -107.049
  O      264.193     248.156    -106.762
  C      264.748     250.456    -106.497
  O      265.232     250.038    -105.222
  C      265.794     250.430    -107.614
  N      270.473     252.148    -106.748
  C      270.035     250.850    -106.921
  N      270.957     249.873    -106.752
  N      268.806     250.537    -107.238
  C      267.993     251.615    -107.362
  C      268.314     252.948    -107.231
  C      269.675     253.278    -106.868
  O      270.125     254.406    -106.674
  N      267.232     253.755    -107.468
  C      266.241     252.915    -107.708
  N      266.643     251.605    -107.614
  O      262.093     254.210    -107.745
  O      263.510     253.661    -109.794
  H      264.450     249.809    -104.684
  H      262.541     255.065    -107.917
  H      271.431     252.342    -106.491
  H      265.217     253.199    -107.918
  H      266.445     249.549    -107.535
  H      264.300     251.450    -106.392
  H      271.902     250.046    -106.441
  H      262.732     249.622    -106.604
  H      270.653     248.915    -106.830
  H      263.742     248.776    -109.111
  H      262.901     250.952    -110.099
  H      261.715     250.085    -109.112
  P      263.321     247.316    -105.712
  C      265.347     246.743    -104.169
  O      264.333     246.267    -105.040
  O      262.394     246.403    -106.645
  O      262.526     248.151    -104.766
  H      261.576     246.155    -106.177
  H      265.178     246.330    -103.175
  H      265.361     247.839    -104.111
  H      266.320     246.401    -104.539
  H      259.744     254.088    -111.142
  H      261.455     254.113    -111.497
  H      260.799     255.181    -110.279

 3  4  5  6  7  8  9  10  11  12  23  26  30  31 0
 6-311+G(2d,p)
 ****
 33  35  36  37  38 0
 6-311+G(2d,p)
 ****
 1  2  13  14  15  16  17  18  19  20  21  22  24  25 0
 3-21G
 ****
 27  28  29  32  34  39  40  41  42  43  44  45  46  47  48  49 0
 3-21G
 ****


