%nproc=1
%NoSave
%Mem=1900MB
#P OB98/GEN NMR

erre ene a

0 1
  C      202.153    -604.720    -397.975
  O      201.675    -604.474    -399.285
  H      201.350    -604.514    -397.270
  H      202.993    -604.059    -397.750
  H      202.461    -605.764    -397.866
  P      202.621    -604.819    -400.534
  C      201.546    -606.989    -401.418
  O      202.620    -606.418    -400.681
  C      202.084    -608.036    -402.389
  O      202.902    -607.400    -403.404
  C      202.969    -609.090    -401.742
  O      202.193    -610.031    -401.026
  C      203.694    -609.644    -402.962
  O      202.857    -610.561    -403.681
  C      203.913    -608.359    -403.797
  N      205.260    -607.799    -403.626
  C      206.242    -608.305    -404.471
  O      206.030    -609.176    -405.307
  N      207.506    -607.807    -404.270
  C      207.882    -606.943    -403.287
  O      209.052    -606.696    -403.012
  C      206.787    -606.387    -402.481
  C      205.551    -606.840    -402.673
  O      203.969    -604.186    -400.520
  O      201.759    -604.345    -401.800
  H      202.091    -603.484    -402.107
  H      203.395    -610.905    -404.427
  H      208.233    -608.204    -404.842
  H      207.038    -605.648    -401.729
  H      204.731    -606.465    -402.067
  H      203.766    -608.560    -404.860
  H      204.606    -610.176    -402.700
  H      203.712    -608.607    -401.083
  H      201.230    -608.503    -402.898
  H      201.042    -606.196    -401.972
  H      200.835    -607.443    -400.724
  P      202.878    -611.229    -400.212
  C      202.469    -610.828    -397.710
  O      203.366    -610.652    -398.798
  O      203.916    -611.988    -400.966
  O      201.653    -612.177    -399.808
  H      201.850    -613.092    -400.105
  H      202.896    -610.407    -396.824
  H      202.292    -611.872    -397.559
  H      201.544    -610.337    -397.928

 6  7  8  9  10  11  12  13  14  15  16  27  31  32  33  34  35 0
 6-311+G(2d,p)
 ****
 36  37 0
 6-311+G(2d,p)
 ****
 1  2  3  4  5  17  18  19  20  21  22  23  24  25 0
 3-21G
 ****
 26  28  29  30  38  39  40  41  42  43  44  45 0
 3-21G
 ****


