%nproc=1
%NoSave
%Mem=1900MB
#P OB98/GEN NMR

erre ene a

0 1
  C      361.272     114.608    -895.753
  O      360.088     115.031    -896.426
  P      359.580     114.099    -897.644
  C      357.046     114.540    -897.225
  O      358.093     113.586    -897.264
  C      355.683     113.855    -897.333
  O      355.545     113.157    -898.586
  C      355.433     112.796    -896.247
  O      355.041     113.379    -895.027
  C      354.282     112.021    -896.882
  O      353.030     112.699    -896.622
  C      354.613     112.076    -898.386
  N      353.979     107.094    -899.116
  C      353.117     108.027    -898.580
  N      351.888     107.567    -898.190
  N      353.415     109.288    -898.406
  C      354.658     109.602    -898.872
  C      355.607     108.774    -899.422
  C      355.254     107.369    -899.555
  O      356.002     106.494    -900.000
  N      356.726     109.462    -899.775
  C      356.470     110.702    -899.445
  N      355.219     110.845    -898.876
  O      360.466     112.780    -897.483
  O      359.742     114.724    -898.989
  H      352.962     112.797    -895.649
  H      360.569     112.334    -898.336
  H      353.696     106.119    -899.206
  H      357.138     111.546    -899.606
  H      353.718     112.282    -898.989
  H      354.180     111.007    -896.472
  H      351.573     106.626    -898.345
  H      356.309     112.151    -896.141
  H      351.235     108.253    -897.818
  H      354.910     114.635    -897.283
  H      357.146     115.253    -898.055
  H      357.124     115.121    -896.281
  P      355.457     112.610    -893.675
  C      357.505     114.190    -893.650
  O      357.036     112.871    -893.502
  O      355.371     111.063    -894.103
  O      354.592     112.909    -892.492
  H      355.155     110.506    -893.325
  H      356.848     114.929    -893.166
  H      357.595     114.434    -894.736
  H      358.509     114.262    -893.214
  H      361.505     115.301    -894.972
  H      362.083     114.569    -896.449
  H      361.116     113.637    -895.332

 3  4  5  6  7  8  9  10  11  12  23  26  30  31  33  0
 6-311+G(2d,p)
 ****
 35  36  37  38 0
 6-311+G(2d,p)
 ****
 1  2  13  14  15  16  17  18  19  20  21  22  24  25  27  28  29 0
 3-21G
 ****
 32  34  39  40  41  42  43  44  45  46  47  48  49 0
 3-21G
 ****


