%nproc=1
%NoSave
%Mem=1900MB
#P OB98/GEN NMR

erre ene a

0 1
  C     -149.663    -134.735     365.499
  O     -148.361    -135.048     365.946
  H     -150.182    -135.665     365.248
  H     -149.606    -134.114     364.599
  H     -150.225    -134.214     366.277
  P     -147.496    -133.838     366.556
  C     -145.568    -133.134     364.961
  O     -146.941    -132.996     365.305
  C     -145.377    -134.306     364.001
  O     -146.307    -134.201     362.888
  C     -143.983    -134.391     363.383
  O     -143.060    -135.035     364.258
  C     -144.268    -135.248     362.159
  O     -144.407    -136.627     362.553
  C     -145.624    -134.689     361.699
  N     -145.668    -133.494     356.765
  C     -145.790    -134.727     357.384
  N     -145.929    -135.796     356.565
  N     -145.767    -134.897     358.676
  C     -145.605    -133.743     359.370
  C     -145.475    -132.465     358.869
  C     -145.513    -132.286     357.434
  O     -145.433    -131.212     356.840
  N     -145.342    -131.545     359.880
  C     -145.368    -132.263     360.987
  N     -145.520    -133.609     360.727
  O     -146.185    -134.570     367.123
  O     -148.173    -133.041     367.619
  H     -143.512    -136.959     362.745
  H     -145.900    -134.111     367.939
  H     -145.685    -133.420     355.762
  H     -145.287    -131.868     361.991
  H     -146.259    -135.463     361.249
  H     -143.471    -135.203     361.419
  H     -145.911    -135.740     355.558
  H     -143.620    -133.405     363.065
  H     -146.053    -136.706     356.998
  H     -145.622    -135.231     364.542
  H     -144.985    -133.316     365.876
  H     -145.222    -132.201     364.496
  P     -141.491    -134.827     363.965
  C     -140.619    -137.092     363.029
  O     -141.156    -135.806     362.730
  O     -140.794    -135.546     365.215
  O     -141.057    -133.408     363.809
  H     -139.898    -135.184     365.340
  H     -140.448    -137.627     362.119
  H     -141.312    -137.635     363.637
  H     -139.694    -136.979     363.556

 6  7  8  9  10  11  12  13  14  15  26  29  33  34 0
 6-311+G(2d,p)
 ****
 36  38  39  40  41 0
 6-311+G(2d,p)
 ****
 1  2  3  4  5  16  17  18  19  20  21  22  23  24  25 0
 3-21G
 ****
 27  28  30  31  32  35  37  42  43  44  45  46  47 0
 3-21G
 ****
 48  49 0
 3-21G
 ****


