%nproc=1
%NoSave
%Mem=1900MB
#P OB98/GEN NMR

erre ene a

0 1
  C      133.734      81.726     304.239
  O      133.768      82.912     303.465
  P      134.855      83.100     302.299
  C      137.410      83.391     302.198
  O      136.249      83.434     303.021
  C      138.677      83.362     303.049
  O      138.708      82.129     303.803
  C      139.963      83.432     302.231
  O      140.932      84.197     302.955
  C      140.444      81.995     302.163
  O      141.867      81.927     301.970
  C      139.940      81.444     303.502
  N      141.968      76.752     304.043
  C      142.501      77.984     304.191
  N      141.913      79.189     304.006
  C      140.618      79.032     303.685
  C      139.930      77.842     303.501
  C      140.664      76.657     303.693
  N      140.109      75.400     303.552
  N      138.619      78.084     303.143
  C      138.511      79.393     303.133
  N      139.689      80.014     303.463
  O      134.470      84.056     301.224
  O      135.088      81.624     301.728
  H      142.070      82.405     301.138
  H      135.203      81.649     300.758
  H      143.548      78.009     304.496
  H      137.614      79.945     302.882
  H      140.652      81.650     304.315
  H      139.966      81.486     301.317
  H      139.810      83.865     301.238
  H      138.633      84.189     303.774
  H      137.417      84.288     301.569
  H      140.678      74.613     303.828
  H      139.106      75.329     303.464
  H      137.362      82.509     301.547
  P      141.822      85.215     302.077
  C      143.659      84.739     300.291
  O      142.480      84.304     300.936
  O      142.745      86.027     302.925
  O      140.678      86.064     301.331
  H      139.844      85.552     301.261
  H      143.931      84.005     299.524
  H      144.481      84.807     301.011
  H      143.499      85.709     299.814
  H      132.945      81.792     304.959
  H      134.669      81.603     304.745
  H      133.563      80.887     303.598

 3  4  5  6  7  8  9  10  11  12  22  25  29  30  31  32 0
 6-311+G(2d,p)
 ****
 33  36  37 0
 6-311+G(2d,p)
 ****
 1  2  13  14  15  16  17  18  19  20  21  23  24  26 0
 3-21G
 ****
 27  28  34  35  38  39  40  41  42  43  44  45  46  47  48 0
 3-21G
 ****


