%nproc=1
%NoSave
%Mem=1900MB
#P OB98/GEN NMR

erre ene a

0 1
  C      -73.698      83.649     -84.005
  O      -74.100      84.982     -84.341
  P      -75.080      85.736     -83.321
  C      -77.366      85.556     -84.561
  O      -76.281      86.387     -84.156
  C      -78.028      86.126     -85.815
  O      -77.185      85.957     -86.971
  C      -79.335      85.436     -86.169
  O      -80.384      85.895     -85.340
  C      -79.503      85.808     -87.638
  O      -80.235      87.034     -87.794
  C      -78.046      85.969     -88.127
  N      -77.656      84.950     -89.086
  C      -77.745      85.313     -90.434
  O      -78.154      86.433     -90.751
  N      -77.392      84.392     -91.387
  C      -77.011      83.205     -91.027
  N      -76.678      82.332     -92.015
  C      -76.932      82.773     -89.613
  C      -77.266      83.688     -88.705
  O      -74.223      87.005     -82.855
  O      -75.502      84.898     -82.156
  H      -79.665      87.732     -87.411
  H      -74.437      87.237     -81.936
  H      -76.616      81.771     -89.363
  H      -77.241      83.455     -87.645
  H      -77.911      86.949     -88.603
  H      -80.059      85.039     -88.183
  H      -79.221      84.348     -86.073
  H      -78.203      87.201     -85.659
  H      -76.748      82.662     -92.972
  H      -78.098      85.476     -83.754
  H      -76.376      81.381     -91.848
  H      -76.986      84.543     -84.740
  P      -81.380      84.808     -84.721
  C      -83.693      85.778     -85.274
  O      -82.687      85.635     -84.290
  O      -80.701      84.499     -83.300
  O      -81.611      83.563     -85.510
  H      -81.169      83.768     -82.857
  H      -84.595      86.168     -84.796
  H      -83.927      84.814     -85.730
  H      -83.366      86.487     -86.039
  H      -73.050      83.269     -84.767
  H      -74.563      83.024     -83.928
  H      -73.181      83.658     -83.068

 3  4  5  6  7  8  9  10  11  12  13  21  23  27  28  29  30  32 0
 6-311+G(2d,p)
 ****
 34  35 0
 6-311+G(2d,p)
 ****
 1  2  14  15  16  17  18  19  20  22  24  25  26 0
 3-21G
 ****
 31  33  36  37  38  39  40  41  42  43  44  45  46 0
 3-21G
 ****


