%nproc=1
%NoSave
%Mem=1900MB
#P OB98/GEN NMR

erre ene a

0 1
  C     -221.027    -172.681     -24.969
  O     -221.991    -172.313     -25.956
  P     -221.476    -171.852     -27.402
  C     -222.311    -173.884     -28.751
  O     -222.451    -172.488     -28.506
  C     -223.673    -174.530     -29.007
  O     -224.508    -174.498     -27.832
  C     -224.478    -173.828     -30.089
  O     -223.958    -174.123     -31.376
  C     -225.874    -174.358     -29.815
  O     -226.060    -175.655     -30.408
  C     -225.882    -174.476     -28.275
  N     -226.634    -173.415     -27.623
  C     -228.024    -173.574     -27.597
  O     -228.547    -174.546     -28.143
  N     -228.784    -172.617     -26.969
  C     -228.206    -171.593     -26.420
  N     -229.010    -170.680     -25.810
  C     -226.747    -171.381     -26.436
  C     -226.029    -172.320     -27.054
  O     -220.017    -172.039     -27.658
  O     -221.877    -170.298     -27.440
  H     -225.332    -176.211     -30.067
  H     -221.235    -169.824     -28.005
  H     -226.312    -170.514     -25.960
  H     -224.951    -172.240     -27.114
  H     -226.323    -175.433     -27.969
  H     -226.646    -173.701     -30.230
  H     -224.454    -172.742     -29.922
  H     -223.505    -175.579     -29.286
  H     -230.008    -170.841     -25.825
  H     -221.831    -174.356     -27.888
  H     -228.653    -169.877     -25.314
  H     -221.636    -174.029     -29.602
  P     -223.294    -172.921     -32.205
  C     -221.349    -174.093     -33.453
  O     -222.648    -173.540     -33.533
  O     -222.017    -172.533     -31.315
  O     -224.183    -171.737     -32.413
  H     -221.854    -171.576     -31.378
  H     -221.190    -174.736     -34.325
  H     -221.227    -174.694     -32.549
  H     -220.606    -173.294     -33.466
  H     -221.529    -172.961     -24.067
  H     -220.381    -171.851     -24.774
  H     -220.448    -173.507     -25.326

 3  4  5  6  7  8  9  10  11  12  13  23  27  28  29  30  32 0
 6-311+G(2d,p)
 ****
 34  35 0
 6-311+G(2d,p)
 ****
 1  2  14  15  16  17  18  19  20  21  22  24  25  26 0
 3-21G
 ****
 31  33  36  37  38  39  40  41  42  43  44  45  46 0
 3-21G
 ****


