%nproc=1
%NoSave
%Mem=1900MB
#P OB98/GEN NMR

erre ene a

0 1
  C     -299.334    -552.906    -127.302
  O     -298.495    -553.934    -126.770
  P     -297.738    -554.964    -127.749
  C     -299.065    -556.829    -126.621
  O     -297.789    -556.436    -127.101
  C     -299.348    -558.328    -126.807
  O     -299.975    -558.584    -128.086
  C     -298.118    -559.235    -126.719
  O     -298.561    -560.462    -126.137
  C     -297.758    -559.423    -128.186
  O     -296.912    -560.555    -128.396
  C     -299.148    -559.511    -128.820
  N     -299.127    -559.220    -130.248
  C     -299.408    -560.269    -131.123
  O     -299.602    -561.402    -130.684
  N     -299.404    -560.017    -132.468
  C     -299.064    -558.861    -132.916
  N     -299.068    -558.678    -134.267
  C     -298.678    -557.732    -132.027
  C     -298.743    -557.978    -130.722
  O     -296.375    -554.521    -128.183
  O     -298.725    -555.079    -129.011
  H     -297.339    -561.336    -127.992
  H     -298.195    -555.263    -129.812
  H     -298.378    -556.778    -132.445
  H     -298.490    -557.224    -129.994
  H     -299.575    -560.514    -128.681
  H     -297.228    -558.533    -128.551
  H     -297.301    -558.798    -126.137
  H     -300.080    -558.625    -126.034
  H     -299.305    -559.482    -134.837
  H     -299.835    -556.254    -127.157
  H     -298.709    -557.847    -134.719
  H     -299.162    -556.567    -125.564
  P     -297.890    -561.079    -124.822
  C     -298.245    -563.407    -125.825
  O     -298.419    -562.579    -124.694
  O     -298.042    -560.253    -123.590
  O     -296.338    -561.268    -125.211
  H     -295.815    -561.370    -124.399
  H     -298.445    -564.450    -125.549
  H     -297.225    -563.335    -126.205
  H     -298.950    -563.109    -126.613
  H     -299.744    -552.329    -126.499
  H     -300.129    -553.350    -127.864
  H     -298.757    -552.270    -127.940

 3  4  5  6  7  8  9  10  11  12  13  23  27  28  29  30  32 0
 6-311+G(2d,p)
 ****
 34  35 0
 6-311+G(2d,p)
 ****
 1  2  14  15  16  17  18  19  20  21  22  24  25  26 0
 3-21G
 ****
 31  33  36  37  38  39  40  41  42  43  44  45  46 0
 3-21G
 ****


