%nproc=1
%NoSave
%Mem=1900MB
#P OB98/GEN NMR

erre ene a

0 1
  C      124.501     105.463      36.393
  O      124.886     105.036      35.096
  P      124.320     105.863      33.842
  C      123.394     103.712      32.705
  O      123.110     105.000      33.240
  C      122.284     102.731      33.066
  O      122.100     102.672      34.497
  C      120.917     103.101      32.504
  O      120.768     102.713      31.148
  C      120.001     102.277      33.396
  O      119.969     100.912      32.942
  C      120.705     102.374      34.757
  N      118.317     103.260      39.130
  C      118.918     102.104      38.668
  N      118.816     101.016      39.461
  N      119.565     102.021      37.536
  C      119.579     103.189      36.841
  C      119.023     104.399      37.197
  C      118.299     104.471      38.451
  O      117.703     105.449      38.887
  N      119.252     105.353      36.241
  C      119.948     104.727      35.312
  N      120.135     103.402      35.608
  O      125.471     105.698      32.741
  O      124.013     107.297      34.127
  H      119.711     100.935      32.002
  H      125.367     106.376      32.045
  H      117.826     103.270      40.007
  H      120.321     105.187      34.404
  H      120.671     101.425      35.301
  H      118.968     102.639      33.395
  H      118.277     100.996      40.316
  H      120.701     104.168      32.646
  H      119.191     100.140      39.119
  H      122.587     101.733      32.722
  H      124.344     103.359      33.111
  H      123.491     103.789      31.615
  P      120.566     103.890      30.074
  C      117.996     103.534      30.191
  O      119.080     104.437      30.317
  O      120.469     103.103      28.685
  O      121.651     104.915      30.071
  H      120.753     103.672      27.951
  H      117.105     103.991      30.640
  H      118.202     102.592      30.702
  H      117.794     103.342      29.131
  H      124.949     104.825      37.126
  H      123.436     105.416      36.482
  H      124.828     106.470      36.549

 3  4  5  6  7  8  9  10  11  12  23  26  30  31 0
 6-311+G(2d,p)
 ****
 33  35  36  37  38 0
 6-311+G(2d,p)
 ****
 1  2  13  14  15  16  17  18  19  20  21  22  24  25 0
 3-21G
 ****
 27  28  29  32  34  39  40  41  42  43  44  45  46  47  48  49 0
 3-21G
 ****


