%nproc=1
%NoSave
%Mem=1900MB
#P OB98/GEN NMR

erre ene a

0 1
  C      -87.337      74.547     111.205
  O      -86.024      75.072     111.213
  H      -87.476      73.932     112.098
  H      -87.492      73.925     110.320
  H      -88.066      75.363     111.219
  P      -85.582      75.918     109.920
  C      -85.129      75.177     107.459
  O      -85.282      74.787     108.816
  C      -84.442      74.066     106.672
  O      -83.067      73.920     107.091
  C      -85.066      72.683     106.850
  O      -86.256      72.503     106.102
  C      -83.932      71.818     106.328
  O      -83.886      71.899     104.891
  C      -82.713      72.514     106.967
  N      -82.355      71.957     108.276
  C      -82.057      70.591     108.316
  O      -82.101      69.907     107.295
  N      -81.749      70.017     109.527
  C      -81.718      70.744     110.600
  N      -81.409      70.120     111.769
  C      -82.013      72.189     110.602
  C      -82.318      72.723     109.421
  O      -84.118      76.437     110.298
  O      -86.525      76.988     109.483
  H      -84.794      71.738     104.574
  H      -83.691      76.850     109.507
  H      -81.988      72.751     111.525
  H      -82.547      73.781     109.344
  H      -81.836      72.454     106.310
  H      -84.041      70.763     106.582
  H      -85.230      72.450     107.909
  H      -84.432      74.363     105.614
  H      -81.272      69.118     111.745
  H      -84.524      76.090     107.430
  H      -81.507      70.564     112.672
  H      -86.107      75.383     107.015
  P      -87.512      71.850     106.865
  C      -88.105      69.448     107.679
  O      -87.305      70.261     106.827
  O      -88.720      72.092     105.849
  O      -87.792      72.426     108.220
  H      -89.556      72.249     106.329
  H      -87.847      68.419     107.535
  H      -89.139      69.593     107.443
  H      -87.930      69.720     108.699

 6  7  8  9  10  11  12  13  14  15  16  26  30  31  32  33  35 0
 6-311+G(2d,p)
 ****
 37  38 0
 6-311+G(2d,p)
 ****
 1  2  3  4  5  17  18  19  20  21  22  23  24  25 0
 3-21G
 ****
 27  28  29  34  36  39  40  41  42  43  44  45  46 0
 3-21G
 ****


