%nproc=1
%NoSave
%Mem=1900MB
#P OB98/GEN NMR

erre ene a

0 1
  C      207.968     122.779     100.243
  O      208.971     122.191     101.051
  P      208.584     121.812     102.560
  C      209.136     119.275     102.805
  O      208.149     120.271     102.566
  C      208.579     117.899     102.437
  O      208.235     117.854     101.035
  C      209.568     116.762     102.652
  O      209.644     116.394     104.021
  C      208.987     115.674     101.762
  O      207.937     114.962     102.438
  C      208.420     116.494     100.586
  N      209.264     116.425      99.397
  C      208.857     115.528      98.412
  O      207.861     114.812      98.531
  N      209.656     115.451      97.305
  C      210.825     116.128      97.111
  O      211.528     115.975      96.119
  C      211.222     117.039      98.197
  C      210.439     117.138      99.275
  O      207.212     122.598     102.814
  O      209.621     122.167     103.572
  H      208.297     114.696     103.308
  H      207.174     122.907     103.739
  H      209.364     114.827      96.569
  H      212.144     117.591      98.077
  H      210.721     117.794     100.092
  H      207.422     116.128     100.318
  H      209.740     114.933     101.471
  H      210.556     117.049     102.269
  H      207.662     117.728     103.019
  H      209.415     119.288     103.861
  H      210.024     119.502     102.210
  P      211.085     116.504     104.724
  C      210.312     117.057     107.158
  O      210.875     117.516     105.948
  O      211.894     117.340     103.623
  O      211.674     115.174     105.055
  H      211.321     117.966     103.146
  H      210.624     116.032     107.382
  H      209.222     117.098     107.089
  H      210.640     117.711     107.970
  H      208.365     122.977      99.269
  H      207.643     123.696     100.689
  H      207.138     122.109     100.161

 3  4  5  6  7  8  9  10  11  12  13  23  28  29  30  31  32 0
 6-311+G(2d,p)
 ****
 33  34 0
 6-311+G(2d,p)
 ****
 1  2  14  15  16  17  18  19  20  21  22  24  25  26 0
 3-21G
 ****
 27  35  36  37  38  39  40  41  42  43  44  45 0
 3-21G
 ****


