%nproc=1
%NoSave
%Mem=1900MB
#P OB98/GEN NMR

erre ene a

0 1
  C     -116.539     186.633     -51.103
  O     -115.479     185.826     -50.578
  P     -114.868     186.079     -49.116
  C     -114.476     183.601     -48.561
  O     -113.870     184.882     -48.706
  C     -113.506     182.444     -48.834
  O     -113.213     182.330     -50.254
  C     -112.154     182.545     -48.112
  O     -111.741     181.201     -47.857
  C     -111.275     183.185     -49.174
  O     -109.886     183.012     -48.937
  C     -111.791     182.477     -50.424
  N     -108.613     182.834     -54.426
  C     -108.763     181.880     -53.482
  N     -109.656     181.838     -52.472
  C     -110.479     182.897     -52.512
  C     -110.451     183.945     -53.420
  C     -109.453     183.893     -54.410
  N     -109.265     184.885     -55.345
  N     -111.433     184.873     -53.126
  C     -112.032     184.395     -52.054
  N     -111.494     183.203     -51.646
  O     -115.889     186.400     -48.071
  O     -113.882     187.326     -49.312
  H     -109.713     182.063     -48.797
  H     -114.027     187.966     -48.589
  H     -108.072     181.044     -53.541
  H     -112.839     184.879     -51.520
  H     -111.361     181.471     -50.518
  H     -111.477     184.263     -49.208
  H     -112.197     183.126     -47.188
  H     -114.016     181.512     -48.550
  H     -115.323     183.535     -49.254
  H     -108.464     184.804     -55.955
  H     -109.796     185.740     -55.269
  H     -114.871     183.514     -47.542
  P     -111.823     180.556     -46.394
  C     -113.068     178.536     -47.348
  O     -111.951     178.974     -46.594
  O     -112.855     181.160     -45.499
  O     -110.348     180.734     -45.792
  H     -110.382     180.652     -44.820
  H     -113.969     178.590     -46.734
  H     -112.905     177.500     -47.655
  H     -113.202     179.152     -48.244
  H     -116.792     186.294     -52.086
  H     -116.221     187.654     -51.148
  H     -117.396     186.554     -50.467

 3  4  5  6  7  8  9  10  11  12  22  25  29  30  31  32 0
 6-311+G(2d,p)
 ****
 33  36  37 0
 6-311+G(2d,p)
 ****
 1  2  13  14  15  16  17  18  19  20  21  23  24  26 0
 3-21G
 ****
 27  28  34  35  38  39  40  41  42  43  44  45  46  47  48 0
 3-21G
 ****


