%nproc=1
%NoSave
%Mem=1900MB
#P OB98/GEN NMR

erre ene a

0 1
  C      -10.775      37.342      -2.671
  O      -10.387      38.676      -2.952
  P       -9.204      38.994      -3.988
  C       -7.064      39.825      -2.831
  O       -7.853      38.693      -3.178
  C       -7.619      40.484      -1.572
  O       -7.946      39.445      -0.619
  C       -6.664      41.420      -0.832
  O       -6.625      42.745      -1.338
  C       -7.296      41.430       0.554
  O       -8.434      42.311       0.563
  C       -7.748      39.977       0.715
  N       -6.076      38.498       5.318
  C       -7.100      39.296       4.940
  N       -7.469      39.657       3.694
  C       -6.683      39.067       2.779
  C       -5.608      38.226       3.010
  C       -5.308      37.942       4.353
  N       -4.278      37.109       4.733
  N       -5.032      37.833       1.817
  C       -5.758      38.416       0.888
  N       -6.773      39.165       1.418
  O       -9.291      40.333      -4.633
  O       -9.268      37.792      -5.039
  H       -8.091      43.218       0.666
  H       -8.771      38.029      -5.846
  H       -7.701      39.705       5.749
  H       -5.586      38.329      -0.175
  H       -8.703      39.889       1.245
  H       -6.613      41.786       1.331
  H       -5.657      40.991      -0.764
  H       -8.548      41.005      -1.835
  H       -7.106      40.540      -3.660
  H       -4.220      36.860       5.708
  H       -3.813      36.570       4.016
  H       -6.024      39.519      -2.692
  P       -5.319      43.621      -0.999
  C       -5.764      45.295       0.962
  O       -5.436      43.984       0.558
  O       -5.093      44.775      -1.911
  O       -4.144      42.535      -1.037
  H       -4.175      41.867      -0.333
  H       -5.951      45.294       2.039
  H       -6.664      45.648       0.453
  H       -4.932      45.972       0.752
  H      -11.575      37.345      -1.960
  H       -9.942      36.806      -2.268
  H      -11.102      36.868      -3.573

 3  4  5  6  7  8  9  10  11  12  22  25  29  30  31  32 0
 6-311+G(2d,p)
 ****
 33  36  37 0
 6-311+G(2d,p)
 ****
 1  2  13  14  15  16  17  18  19  20  21  23  24  26 0
 3-21G
 ****
 27  28  34  35  38  39  40  41  42  43  44  45  46  47  48 0
 3-21G
 ****


