%nproc=1
%NoSave
%Mem=1900MB
#P OB98/GEN NMR

erre ene a

0 1
  C     -268.008     131.897    -416.250
  O     -267.844     130.855    -415.312
  H     -267.034     132.288    -416.556
  H     -268.526     131.503    -417.129
  H     -268.611     132.700    -415.816
  P     -267.005     131.212    -413.987
  C     -267.070     128.636    -413.698
  O     -266.342     129.836    -413.487
  C     -266.123     127.517    -414.138
  O     -264.983     127.455    -413.249
  C     -266.731     126.121    -414.111
  O     -267.555     125.874    -415.252
  C     -265.466     125.267    -414.136
  O     -264.976     125.169    -415.482
  C     -264.501     126.082    -413.277
  N     -262.216     122.711    -410.153
  C     -262.109     122.915    -411.484
  N     -262.751     123.827    -412.250
  C     -263.574     124.584    -411.499
  C     -263.782     124.479    -410.132
  C     -263.068     123.486    -409.451
  N     -263.191     123.272    -408.092
  N     -264.687     125.432    -409.710
  C     -265.026     126.101    -410.796
  N     -264.374     125.610    -411.914
  O     -268.141     131.494    -412.890
  O     -266.072     132.364    -414.118
  H     -265.694     124.768    -416.012
  H     -267.839     132.202    -412.297
  H     -261.405     122.275    -412.009
  H     -265.712     126.932    -410.830
  H     -263.496     126.115    -413.724
  H     -265.641     124.249    -413.775
  H     -267.280     125.945    -413.179
  H     -265.752     127.763    -415.144
  H     -267.817     128.797    -414.487
  H     -262.515     122.687    -407.630
  H     -263.839     123.867    -407.574
  H     -267.581     128.364    -412.775
  P     -269.099     125.564    -414.988
  C     -269.550     126.321    -417.426
  O     -269.748     125.313    -416.439
  O     -269.696     126.990    -414.548
  O     -269.374     124.511    -413.955
  H     -270.492     126.857    -414.000
  H     -270.030     126.028    -418.336
  H     -268.502     126.448    -417.601
  H     -269.969     127.244    -417.082

 6  7  8  9  10  11  12  13  14  15  25  28  32  33  34  35 0
 6-311+G(2d,p)
 ****
 36  39  40 0
 6-311+G(2d,p)
 ****
 1  2  3  4  5  16  17  18  19  20  21  22  23  24 0
 3-21G
 ****
 26  27  29  30  31  37  38  41  42  43  44  45  46  47  48 0
 3-21G
 ****


