%nproc=1
%NoSave
%Mem=1900MB
#P OB98/GEN NMR

erre ene a

0 1
  C     -202.003    -288.133     701.730
  O     -202.407    -287.297     700.660
  H     -200.931    -288.329     701.635
  H     -202.543    -289.084     701.684
  H     -202.193    -287.644     702.689
  P     -203.911    -286.745     700.699
  C     -203.572    -284.173     701.115
  O     -203.917    -285.444     701.650
  C     -203.002    -283.284     702.218
  O     -201.661    -283.674     702.569
  C     -202.856    -281.821     701.819
  O     -204.096    -281.159     701.709
  C     -201.981    -281.313     702.954
  O     -202.755    -281.073     704.140
  C     -201.023    -282.509     703.158
  N     -199.700    -282.273     702.588
  C     -198.813    -281.529     703.388
  O     -199.170    -281.133     704.498
  N     -197.576    -281.237     702.890
  C     -197.228    -281.665     701.714
  N     -195.985    -281.328     701.277
  C     -198.121    -282.472     700.857
  C     -199.324    -282.731     701.346
  O     -204.663    -287.839     701.597
  O     -204.537    -286.502     699.368
  H     -202.118    -280.857     704.843
  H     -204.236    -287.998     702.456
  H     -197.785    -282.811     699.886
  H     -200.040    -283.312     700.778
  H     -200.896    -282.725     704.231
  H     -201.489    -280.373     702.697
  H     -202.281    -281.735     700.883
  H     -203.638    -283.393     703.108
  H     -195.413    -280.760     701.883
  H     -204.431    -283.703     700.642
  H     -195.619    -281.576     700.366
  H     -202.817    -284.337     700.335
  P     -204.385    -280.160     700.489
  C     -206.639    -280.729     699.386
  O     -205.235    -280.989     699.406
  O     -203.177    -279.474     699.935
  O     -205.480    -279.152     701.088
  H     -206.303    -279.581     701.375
  H     -207.103    -281.331     698.633
  H     -206.807    -279.695     699.170
  H     -207.059    -280.966     700.341

 6  7  8  9  10  11  12  13  14  15  16  26  30  31  32  33  35 0
 6-311+G(2d,p)
 ****
 37  38 0
 6-311+G(2d,p)
 ****
 1  2  3  4  5  17  18  19  20  21  22  23  24  25 0
 3-21G
 ****
 27  28  29  34  36  39  40  41  42  43  44  45  46 0
 3-21G
 ****


