%nproc=1
%NoSave
%Mem=1900MB
#P OB98/GEN NMR

erre ene a

0 1
  C     -466.232      87.216    -106.993
  O     -466.967      86.099    -106.536
  H     -465.772      87.706    -106.130
  H     -466.896      87.930    -107.485
  H     -465.441      86.906    -107.682
  P     -467.665      85.139    -107.615
  C     -466.986      83.173    -106.103
  O     -468.033      83.775    -106.849
  C     -467.493      82.715    -104.736
  O     -467.839      83.886    -103.949
  C     -468.734      81.816    -104.811
  O     -468.628      80.816    -103.799
  C     -469.874      82.762    -104.478
  O     -470.994      82.081    -103.914
  C     -469.201      83.736    -103.509
  N     -472.942      86.358    -101.351
  C     -472.470      85.088    -101.078
  N     -473.100      84.402    -100.099
  N     -471.465      84.537    -101.711
  C     -470.918      85.342    -102.654
  C     -471.298      86.614    -103.019
  C     -472.418      87.207    -102.322
  O     -472.891      88.319    -102.529
  N     -470.513      87.091    -104.043
  C     -469.667      86.110    -104.293
  N     -469.877      85.023    -103.486
  O     -466.906      84.946    -108.890
  O     -469.092      85.814    -107.870
  H     -471.130      81.265    -104.441
  H     -469.086      86.331    -108.696
  H     -473.723      86.727    -100.840
  H     -468.891      86.131    -105.049
  H     -469.196      83.361    -102.478
  H     -470.204      83.277    -105.388
  H     -473.867      84.767     -99.559
  H     -468.863      81.343    -105.790
  H     -472.753      83.477     -99.865
  H     -466.675      82.211    -104.213
  H     -466.189      83.916    -105.970
  H     -466.585      82.319    -106.661
  P     -468.361      79.299    -104.238
  C     -466.160      78.531    -103.141
  O     -467.580      78.562    -103.047
  O     -467.769      79.115    -105.597
  O     -469.824      78.642    -104.150
  H     -469.885      77.924    -104.811
  H     -465.758      78.016    -102.294
  H     -465.782      79.532    -103.163
  H     -465.873      78.022    -104.037

 6  7  8  9  10  11  12  13  14  15  26  29  33  34 0
 6-311+G(2d,p)
 ****
 36  38  39  40  41 0
 6-311+G(2d,p)
 ****
 1  2  3  4  5  16  17  18  19  20  21  22  23  24  25 0
 3-21G
 ****
 27  28  30  31  32  35  37  42  43  44  45  46  47 0
 3-21G
 ****
 48  49 0
 3-21G
 ****


