%nproc=1
%NoSave
%Mem=1900MB
#P OB98/GEN NMR

erre ene a

0 1
  C      463.729     -91.986    -565.155
  O      463.200     -92.926    -564.245
  P      462.759     -94.402    -564.666
  C      460.280     -95.181    -564.741
  O      461.280     -94.326    -565.288
  C      459.725     -94.674    -563.402
  O      459.254     -93.315    -563.558
  C      458.509     -95.509    -562.987
  O      458.683     -96.740    -562.317
  C      457.575     -94.526    -562.285
  O      457.684     -94.584    -560.863
  C      458.040     -93.164    -562.806
  N      453.782     -90.412    -562.903
  C      454.632     -90.666    -561.839
  N      454.182     -90.288    -560.623
  N      455.795     -91.250    -561.967
  C      456.062     -91.648    -563.238
  C      455.308     -91.444    -564.364
  C      454.046     -90.763    -564.215
  O      453.225     -90.593    -565.117
  N      455.857     -92.056    -565.462
  C      456.926     -92.663    -564.993
  N      457.069     -92.479    -563.636
  O      463.075     -95.499    -563.698
  O      463.668     -94.642    -565.979
  H      457.173     -95.348    -560.547
  H      463.902     -95.586    -566.000
  H      452.861     -90.031    -562.727
  H      457.604     -93.277    -565.576
  H      458.274     -92.488    -561.971
  H      456.527     -94.752    -562.522
  H      453.238     -89.978    -560.471
  H      457.983     -95.782    -563.909
  H      454.698     -90.606    -559.809
  H      460.511     -94.630    -562.641
  H      460.725     -96.173    -564.624
  H      459.453     -95.282    -565.455
  P      457.638     -97.945    -562.258
  C      456.598     -98.712    -560.045
  O      456.639     -97.693    -561.033
  O      458.507     -99.201    -561.760
  O      456.971     -98.267    -563.555
  H      458.064    -100.031    -562.020
  H      455.693     -98.586    -559.446
  H      457.475     -98.629    -559.398
  H      456.583     -99.706    -560.512
  H      463.948     -91.074    -564.639
  H      463.014     -91.796    -565.928
  H      464.627     -92.375    -565.588

 3  4  5  6  7  8  9  10  11  12  23  26  30  31 0
 6-311+G(2d,p)
 ****
 33  35  36  37  38 0
 6-311+G(2d,p)
 ****
 1  2  13  14  15  16  17  18  19  20  21  22  24  25 0
 3-21G
 ****
 27  28  29  32  34  39  40  41  42  43  44  45  46  47  48  49 0
 3-21G
 ****


