%nproc=1
%NoSave
%Mem=1900MB
#P OB98/GEN NMR

erre ene a

0 1
  C      -36.687    -154.546     200.227
  O      -35.809    -153.723     199.486
  H      -37.459    -154.966     199.573
  H      -36.113    -155.364     200.667
  H      -37.153    -153.969     201.030
  P      -36.483    -152.517     198.670
  C      -35.564    -153.764     196.591
  O      -36.637    -153.024     197.154
  C      -36.095    -155.001     195.876
  O      -37.101    -155.647     196.682
  C      -36.769    -154.724     194.537
  O      -35.818    -154.524     193.497
  C      -37.548    -156.017     194.343
  O      -36.671    -157.042     193.840
  C      -37.987    -156.357     195.776
  N      -42.906    -157.817     195.580
  C      -41.765    -158.435     195.195
  N      -40.497    -157.984     195.266
  C      -40.456    -156.760     195.817
  C      -41.533    -156.005     196.258
  C      -42.809    -156.579     196.114
  N      -43.964    -155.932     196.494
  N      -41.107    -154.803     196.777
  C      -39.795    -154.827     196.657
  N      -39.355    -155.988     196.074
  O      -35.309    -151.428     198.576
  O      -37.715    -151.940     199.282
  H      -36.399    -156.762     192.944
  H      -35.702    -150.535     198.634
  H      -41.891    -159.432     194.776
  H      -39.128    -154.037     196.978
  H      -37.869    -157.427     195.988
  H      -38.375    -155.917     193.637
  H      -37.468    -153.886     194.610
  H      -35.259    -155.705     195.755
  H      -34.880    -154.074     197.388
  H      -44.817    -156.464     196.553
  H      -43.879    -155.007     196.904
  H      -35.021    -153.122     195.889
  P      -35.816    -153.094     192.764
  C      -36.047    -154.328     190.492
  O      -36.566    -153.327     191.365
  O      -34.284    -152.913     192.337
  O      -36.303    -151.955     193.594
  H      -34.076    -151.960     192.250
  H      -36.643    -154.371     189.605
  H      -36.071    -155.278     190.984
  H      -35.038    -154.086     190.232

 6  7  8  9  10  11  12  13  14  15  25  28  32  33  34  35 0
 6-311+G(2d,p)
 ****
 36  39  40 0
 6-311+G(2d,p)
 ****
 1  2  3  4  5  16  17  18  19  20  21  22  23  24 0
 3-21G
 ****
 26  27  29  30  31  37  38  41  42  43  44  45  46  47  48 0
 3-21G
 ****


