%nproc=1
%NoSave
%Mem=1900MB
#P OB98/GEN NMR

erre ene a

0 1
  C      643.350     430.087     -23.806
  O      642.258     429.539     -24.518
  H      643.842     429.307     -23.219
  H      644.070     430.497     -24.521
  H      643.011     430.892     -23.147
  P      641.096     428.852     -23.649
  C      638.679     429.736     -23.976
  O      639.740     428.955     -24.508
  C      637.772     430.219     -25.107
  O      638.467     431.260     -25.841
  C      637.355     429.128     -26.109
  O      635.922     429.022     -26.166
  C      637.853     429.634     -27.457
  O      636.935     429.399     -28.523
  C      638.069     431.126     -27.212
  N      639.833     435.393     -29.376
  C      639.075     435.198     -28.272
  N      638.729     434.032     -27.688
  C      639.271     433.001     -28.346
  C      640.080     433.039     -29.468
  C      640.345     434.306     -30.007
  N      641.065     434.502     -31.167
  N      640.432     431.760     -29.870
  C      639.818     430.965     -29.028
  N      639.084     431.659     -28.098
  O      640.866     429.891     -22.453
  O      641.418     427.485     -23.142
  H      637.468     429.371     -29.339
  H      640.850     429.413     -21.603
  H      638.692     436.096     -27.794
  H      639.827     429.876     -29.062
  H      637.148     431.702     -27.358
  H      638.804     429.126     -27.694
  H      637.793     428.146     -25.870
  H      636.882     430.679     -24.659
  H      639.091     430.608     -23.451
  H      641.109     435.444     -31.535
  H      641.352     433.701     -31.696
  H      638.119     429.136     -23.259
  P      635.247     427.895     -25.239
  C      632.897     427.516     -24.190
  O      633.691     428.262     -25.103
  O      635.835     428.225     -23.785
  O      635.549     426.497     -25.663
  H      635.849     427.418     -23.240
  H      631.890     427.878     -24.214
  H      633.292     427.626     -23.202
  H      632.911     426.482     -24.467

 6  7  8  9  10  11  12  13  14  15  25  28  32  33  34  35 0
 6-311+G(2d,p)
 ****
 36  39  40 0
 6-311+G(2d,p)
 ****
 1  2  3  4  5  16  17  18  19  20  21  22  23  24 0
 3-21G
 ****
 26  27  29  30  31  37  38  41  42  43  44  45  46  47  48 0
 3-21G
 ****


