%nproc=1
%NoSave
%Mem=1900MB
#P OB98/GEN NMR

erre ene a

0 1
  C       -6.024     -43.780      30.206
  O       -4.725     -44.335      30.092
  P       -3.564     -43.571      29.289
  C       -1.984     -44.908      30.815
  O       -2.258     -44.480      29.486
  C       -0.481     -44.886      31.074
  O        0.003     -43.542      30.840
  C       -0.044     -45.227      32.498
  O        0.074     -46.617      32.762
  C        1.341     -44.592      32.528
  O        2.283     -45.445      31.853
  C        1.124     -43.305      31.728
  N        3.166     -39.416      34.350
  C        3.720     -40.371      33.569
  N        3.110     -41.384      32.920
  C        1.781     -41.329      33.103
  C        1.072     -40.416      33.865
  C        1.823     -39.419      34.510
  N        1.253     -38.434      35.287
  N       -0.281     -40.694      33.827
  C       -0.382     -41.748      33.046
  N        0.834     -42.164      32.577
  O       -3.414     -42.132      29.640
  O       -3.933     -43.800      27.751
  H        1.886     -45.684      30.995
  H       -3.446     -43.162      27.194
  H        4.800     -40.317      33.454
  H       -1.309     -42.243      32.795
  H        1.986     -43.048      31.102
  H        1.718     -44.441      33.543
  H       -0.682     -44.734      33.240
  H        0.004     -45.550      30.348
  H       -2.354     -45.933      30.928
  H        1.853     -37.688      35.602
  H        0.247     -38.339      35.274
  H       -2.517     -44.270      31.523
  P       -0.568     -47.158      34.135
  C       -0.803     -49.648      33.364
  O       -0.175     -48.711      34.211
  O       -2.015     -46.853      34.305
  O        0.364     -46.487      35.250
  H        1.280     -46.806      35.271
  H       -0.287     -50.607      33.458
  H       -0.754     -49.327      32.321
  H       -1.847     -49.782      33.660
  H       -6.645     -44.440      30.775
  H       -6.443     -43.649      29.230
  H       -5.965     -42.832      30.699

 3  4  5  6  7  8  9  10  11  12  22  25  29  30  31  32 0
 6-311+G(2d,p)
 ****
 33  36  37 0
 6-311+G(2d,p)
 ****
 1  2  13  14  15  16  17  18  19  20  21  23  24  26 0
 3-21G
 ****
 27  28  34  35  38  39  40  41  42  43  44  45  46  47  48 0
 3-21G
 ****


