%nproc=1
%NoSave
%Mem=1900MB
#P OB98/GEN NMR

erre ene a

0 1
  C       36.025    -204.655     292.449
  O       36.315    -203.272     292.373
  H       35.332    -204.915     291.643
  H       35.554    -204.886     293.409
  H       36.940    -205.241     292.331
  P       37.335    -202.696     293.467
  C       37.479    -202.878     296.064
  O       36.688    -203.036     294.896
  C       36.663    -202.203     297.173
  O       36.571    -200.778     296.883
  C       35.222    -202.728     297.292
  O       34.808    -202.573     298.660
  C       34.463    -201.741     296.418
  O       33.073    -201.832     296.639
  C       35.164    -200.448     296.831
  N       32.207    -196.412     295.777
  C       32.208    -197.280     296.810
  N       33.035    -198.322     297.028
  C       33.950    -198.419     296.050
  C       34.079    -197.601     294.937
  C       33.149    -196.557     294.810
  N       33.139    -195.676     293.753
  N       35.138    -198.014     294.148
  C       35.640    -199.061     294.777
  N       34.949    -199.345     295.924
  O       37.158    -201.110     293.335
  O       38.758    -203.116     293.305
  H       32.589    -201.195     296.070
  H       37.845    -200.747     292.746
  H       31.440    -197.115     297.564
  H       36.486    -199.650     294.445
  H       34.861    -200.119     297.830
  H       34.628    -201.953     295.357
  H       35.112    -203.772     296.993
  H       37.204    -202.299     298.123
  H       38.349    -202.261     295.813
  H       37.820    -203.860     296.408
  H       32.427    -194.964     293.731
  H       33.821    -195.782     293.019
  P       34.509    -203.887     299.539
  C       32.660    -205.739     299.601
  O       33.064    -204.458     299.138
  O       34.226    -203.261     300.989
  O       35.616    -204.890     299.602
  H       34.464    -203.911     301.679
  H       31.676    -205.955     299.239
  H       32.656    -205.747     300.671
  H       33.343    -206.480     299.241

 6  7  8  9  10  11  12  13  14  15  25  28  32  33  34  35 0
 6-311+G(2d,p)
 ****
 36  37  40 0
 6-311+G(2d,p)
 ****
 1  2  3  4  5  16  17  18  19  20  21  22  23  24 0
 3-21G
 ****
 26  27  29  30  31  38  39 41  42  43  44  45  46  47  48 0
 3-21G
 ****


