%nproc=1
%NoSave
%Mem=1900MB
#P OB98/GEN NMR

erre ene a

0 1
  C     -137.079    -231.889    -240.455
  O     -137.696    -233.158    -240.515
  H     -136.310    -231.834    -241.230
  H     -136.604    -231.753    -239.480
  H     -137.811    -231.094    -240.628
  P     -138.993    -233.373    -239.595
  C     -140.719    -233.717    -241.504
  O     -140.251    -232.876    -240.459
  C     -141.842    -233.028    -242.274
  O     -141.357    -231.813    -242.888
  C     -142.435    -233.866    -243.399
  O     -143.408    -234.783    -242.920
  C     -143.075    -232.780    -244.248
  O     -144.312    -232.351    -243.638
  C     -142.031    -231.661    -244.169
  N     -140.955    -230.186    -248.898
  C     -142.088    -229.971    -248.137
  N     -143.081    -229.266    -248.721
  N     -142.239    -230.407    -246.913
  C     -141.168    -231.104    -246.462
  C     -139.991    -231.382    -247.119
  C     -139.836    -230.888    -248.468
  O     -138.844    -231.032    -249.178
  N     -139.136    -232.107    -246.331
  C     -139.802    -232.282    -245.204
  N     -141.043    -231.699    -245.235
  O     -138.846    -232.236    -238.475
  O     -139.126    -234.725    -238.981
  H     -144.108    -232.141    -242.707
  H     -139.183    -232.583    -237.627
  H     -140.896    -229.839    -249.840
  H     -139.429    -232.820    -244.343
  H     -142.484    -230.664    -244.187
  H     -143.319    -233.120    -245.255
  H     -143.050    -228.945    -249.677
  H     -141.655    -234.371    -243.982
  H     -143.906    -229.066    -248.173
  H     -142.619    -232.743    -241.553
  H     -141.097    -234.651    -241.072
  H     -139.886    -233.946    -242.175
  P     -143.148    -236.350    -243.178
  C     -143.886    -236.834    -240.735
  O     -142.879    -236.986    -241.731
  O     -141.699    -236.363    -243.859
  O     -144.171    -237.027    -244.019
  H     -141.584    -237.180    -244.386
  H     -143.567    -237.307    -239.830
  H     -144.794    -237.288    -241.073
  H     -144.054    -235.793    -240.554

 6  7  8  9  10  11  12  13  14  15  26  29  33  34 0
 6-311+G(2d,p)
 ****
 36  38  39  40  41 0
 6-311+G(2d,p)
 ****
 1  2  3  4  5  16  17  18  19  20  21  22  23  24  25 0
 3-21G
 ****
 27  28  30  31  32  35  37  42  43  44  45  46  47 0
 3-21G
 ****
 48  49 0
 3-21G
 ****


