%nproc=1
%NoSave
%Mem=1900MB
#P OB98/GEN NMR

erre ene a

0 1
  C       56.527    -788.443    -462.037
  O       55.784    -789.390    -461.295
  H       57.184    -788.973    -462.728
  H       57.140    -787.828    -461.372
  H       55.852    -787.801    -462.618
  P       54.822    -788.864    -460.128
  C       53.620    -786.739    -460.980
  O       53.573    -788.152    -460.844
  C       52.248    -786.181    -461.377
  O       51.833    -786.802    -462.629
  C       51.143    -786.469    -460.341
  O       50.185    -785.404    -460.426
  C       50.548    -787.758    -460.889
  O       49.303    -788.044    -460.293
  C       50.567    -787.454    -462.389
  N       50.407    -788.653    -463.199
  C       49.098    -789.036    -463.484
  O       48.150    -788.381    -463.045
  N       48.885    -790.166    -464.235
  C       49.894    -790.890    -464.612
  N       49.618    -792.004    -465.335
  C       51.295    -790.548    -464.281
  C       51.478    -789.423    -463.588
  O       55.484    -788.055    -459.060
  O       54.175    -790.202    -459.531
  H       48.612    -787.422    -460.606
  H       54.592    -790.414    -458.672
  H       52.102    -791.192    -464.600
  H       52.472    -789.096    -463.299
  H       49.771    -786.743    -462.655
  H       51.204    -788.607    -460.662
  H       51.523    -786.560    -459.320
  H       52.337    -785.107    -461.563
  H       48.640    -792.202    -465.531
  H       54.356    -786.507    -461.758
  H       50.317    -792.649    -465.662
  H       53.946    -786.282    -460.040
  P       50.031    -784.294    -459.279
  C       51.259    -782.182    -458.431
  O       51.215    -783.219    -459.410
  O       49.871    -784.853    -457.899
  O       48.728    -783.448    -459.690
  H       48.288    -783.128    -458.882
  H       52.089    -781.538    -458.631
  H       51.369    -782.614    -457.458
  H       50.351    -781.617    -458.469

 6  7  8  9  10  11  12  13  14  15  16  26  30  31  32  33  35 0
 6-311+G(2d,p)
 ****
 37  38 0
 6-311+G(2d,p)
 ****
 1  2  3  4  5  17  18  19  20  21  22  23  24  25 0
 3-21G
 ****
 27  28  29  34  36  39  40  41  42  43  44  45  46 0
 3-21G
 ****


