%nproc=1
%NoSave
%Mem=1900MB
#P OB98/GEN NMR

erre ene a

0 1
  C       82.636    1149.704    -899.256
  O       83.283    1150.701    -898.436
  P       82.430    1151.365    -897.246
  C       84.177    1150.569    -895.476
  O       83.427    1151.640    -896.006
  C       85.529    1151.056    -894.926
  O       86.490    1151.311    -896.006
  C       85.437    1152.379    -894.126
  O       85.021    1152.156    -892.786
  C       86.877    1152.852    -894.206
  O       87.660    1152.157    -893.186
  C       87.323    1152.443    -895.626
  N       89.775    1156.120    -898.066
  C       90.230    1155.185    -897.226
  N       91.566    1155.195    -896.906
  N       89.487    1154.289    -896.596
  C       88.188    1154.347    -896.966
  C       87.596    1155.216    -897.886
  C       88.452    1156.237    -898.516
  O       88.077    1157.101    -899.296
  N       86.239    1154.981    -898.036
  C       86.015    1153.940    -897.226
  N       87.171    1153.539    -896.576
  O       81.569    1150.118    -896.716
  O       81.533    1152.523    -897.656
  H       88.527    1152.587    -893.136
  H       80.723    1150.425    -896.316
  H       90.378    1156.803    -898.506
  H       85.053    1153.470    -897.106
  H       88.361    1152.117    -895.626
  H       86.962    1153.934    -893.956
  H       92.202    1155.883    -897.346
  H       84.781    1153.103    -894.636
  H       91.925    1154.530    -896.276
  H       85.959    1150.275    -894.286
  H       84.358    1149.784    -896.246
  H       83.584    1150.080    -894.676
  P       84.770    1153.427    -891.856
  C       82.352    1152.772    -891.106
  O       83.708    1152.928    -890.716
  O       83.905    1154.398    -892.786
  O       86.016    1154.078    -891.316
  H       84.105    1155.315    -892.576
  H       81.803    1152.294    -890.256
  H       82.248    1152.159    -891.996
  H       81.882    1153.755    -891.296
  H       83.321    1149.355    -900.000
  H       81.780    1150.135    -899.733
  H       82.327    1148.883    -898.642

 3  4  5  6  7  8  9  10  11  12  23  26  30  31 0
 6-311+G(2d,p)
 ****
 33  35  36  37  38 0
 6-311+G(2d,p)
 ****
 1  2  13  14  15  16  17  18  19  20  21  22  24  25 0
 3-21G
 ****
 27  28  29  32  34  39  40  41  42  43  44  45  46  47  48  49 0
 3-21G
 ****


