%nproc=1
%NoSave
%Mem=1900MB
#P OB98/GEN NMR

erre ene a

0 1
  C     -230.482     377.683    -335.691
  O     -230.445     378.108    -337.060
  P     -231.668     378.983    -337.614
  C     -232.196     381.518    -337.896
  O     -231.211     380.517    -337.685
  C     -231.578     382.763    -338.539
  O     -230.416     383.219    -337.818
  C     -231.102     382.538    -339.969
  O     -232.175     382.633    -340.893
  C     -230.141     383.701    -340.145
  O     -230.886     384.907    -340.431
  C     -229.489     383.799    -338.762
  N     -224.555     383.848    -340.138
  C     -225.582     384.675    -340.429
  N     -226.869     384.592    -340.042
  C     -227.056     383.513    -339.259
  C     -226.107     382.575    -338.873
  C     -224.801     382.774    -339.350
  N     -223.758     381.926    -339.045
  N     -226.670     381.605    -338.075
  C     -227.937     381.961    -337.962
  N     -228.219     383.098    -338.666
  O     -232.701     378.968    -336.389
  O     -232.283     378.441    -338.857
  H     -230.282     385.660    -340.277
  H     -233.614     378.965    -336.728
  H     -225.331     385.530    -341.061
  H     -228.683     381.427    -337.382
  H     -229.313     384.840    -338.455
  H     -229.448     383.553    -340.975
  H     -230.560     381.584    -340.060
  H     -232.332     383.562    -338.522
  H     -232.669     381.779    -336.947
  H     -222.843     382.150    -339.406
  H     -223.932     381.138    -338.439
  H     -232.995     381.105    -338.528
  P     -232.702     381.267    -341.557
  C     -234.813     379.863    -340.970
  O     -234.246     381.152    -341.122
  O     -231.967     380.143    -340.686
  O     -232.419     381.136    -343.010
  H     -231.816     379.343    -341.233
  H     -235.734     379.952    -340.391
  H     -234.129     379.190    -340.440
  H     -235.052     379.445    -341.953
  H     -229.604     377.113    -335.471
  H     -231.350     377.079    -335.528
  H     -230.520     378.541    -335.052

 3  4  5  6  7  8  9  10  11  12  22  25  29  30  31  32 0
 6-311+G(2d,p)
 ****
 33  36  37 0
 6-311+G(2d,p)
 ****
 1  2  13  14  15  16  17  18  19  20  21  23  24  26 0
 3-21G
 ****
 27  28  34  35  38  39  40  41  42  43  44  45  46  47  48 0
 3-21G
 ****


