%nproc=1
%NoSave
%Mem=1900MB
#P OB98/GEN NMR

erre ene a

0 1
  C     -215.137     138.355     603.037
  O     -214.759     139.676     603.443
  P     -213.972     139.841     604.836
  C     -214.332     142.275     605.717
  O     -213.513     141.383     604.967
  C     -214.330     143.654     605.069
  O     -212.993     144.088     604.716
  C     -215.144     143.736     603.783
  O     -216.529     143.921     604.037
  C     -214.566     144.993     603.139
  O     -215.157     146.154     603.735
  C     -213.084     144.891     603.507
  N     -209.767     145.796     599.789
  C     -210.370     146.670     600.687
  N     -210.042     147.974     600.567
  N     -211.226     146.299     601.586
  C     -211.443     144.951     601.604
  C     -210.905     143.994     600.782
  C     -209.969     144.428     599.762
  O     -209.415     143.700     598.943
  N     -211.378     142.744     601.091
  C     -212.187     142.948     602.116
  N     -212.278     144.277     602.463
  O     -212.582     139.087     604.555
  O     -214.683     139.275     606.015
  H     -216.008     146.313     603.274
  H     -212.226     138.740     605.389
  H     -209.117     146.142     599.107
  H     -212.731     142.170     602.645
  H     -212.631     145.864     603.721
  H     -214.777     145.044     602.064
  H     -209.347     148.333     599.921
  H     -214.949     142.867     603.135
  H     -210.456     148.624     601.222
  H     -214.752     144.381     605.794
  H     -213.963     142.351     606.757
  H     -215.346     141.862     605.796
  P     -217.578     143.289     603.001
  C     -219.655     144.772     603.483
  O     -219.031     143.519     603.642
  O     -217.324     141.709     603.153
  O     -217.408     143.744     601.580
  H     -217.501     141.261     602.304
  H     -220.688     144.696     603.832
  H     -219.664     145.070     602.430
  H     -219.137     145.536     604.083
  H     -215.649     138.403     602.098
  H     -215.783     137.927     603.774
  H     -214.261     137.749     602.935

 3  4  5  6  7  8  9  10  11  12  23  26  30  31 0
 6-311+G(2d,p)
 ****
 33  35  36  37  38 0
 6-311+G(2d,p)
 ****
 1  2  13  14  15  16  17  18  19  20  21  22  24  25 0
 3-21G
 ****
 27  28  29  32  34  39  40  41  42  43  44  45  46  47  48  49 0
 3-21G
 ****


