%nproc=1
%NoSave
%Mem=1900MB
#P OB98/GEN NMR

erre ene a

0 1
  C      323.917      89.591    -150.194
  O      322.992      89.768    -151.245
  H      323.512      90.063    -149.291
  H      324.867      90.068    -150.433
  H      324.072      88.527    -149.993
  P      323.415      89.342    -152.737
  C      321.100      88.883    -153.756
  O      322.180      89.812    -153.665
  C      319.765      89.601    -153.974
  O      319.335      90.208    -152.734
  C      319.816      90.708    -155.037
  O      318.690      90.579    -155.915
  C      319.713      91.990    -154.227
  O      319.196      93.075    -154.994
  C      318.838      91.534    -153.056
  N      318.910      92.422    -151.904
  C      318.906      93.800    -152.186
  O      318.858      94.192    -153.353
  N      318.971      94.684    -151.144
  C      319.087      94.249    -149.926
  N      319.159      95.181    -148.929
  C      319.149      92.810    -149.587
  C      319.051      91.961    -150.612
  O      323.805      87.909    -152.890
  O      324.574      90.370    -153.138
  H      318.314      92.807    -155.351
  H      325.099      89.998    -153.886
  H      319.263      92.492    -148.559
  H      319.073      90.883    -150.459
  H      317.794      91.437    -153.360
  H      320.705      92.278    -153.861
  H      320.721      90.683    -155.635
  H      319.009      88.851    -154.223
  H      319.119      96.155    -149.214
  H      321.072      88.289    -152.835
  H      319.260      94.952    -147.950
  H      321.292      88.221    -154.607
  P      318.949      89.751    -157.270
  C      317.559      87.600    -156.822
  O      317.652      88.831    -157.535
  O      320.083      88.700    -156.842
  O      319.372      90.588    -158.426
  H      320.955      89.004    -157.146
  H      316.654      87.098    -157.094
  H      317.555      87.796    -155.770
  H      318.398      86.982    -157.066

 6  7  8  9  10  11  12  13  14  15  16  26  30  31  32  33  35 0
 6-311+G(2d,p)
 ****
 37  38 0
 6-311+G(2d,p)
 ****
 1  2  3  4  5  17  18  19  20  21  22  23  24  25 0
 3-21G
 ****
 27  28  29  34  36  39  40  41  42  43  44  45  46 0
 3-21G
 ****


