%nproc=1
%NoSave
%Mem=1900MB
#P OB98/GEN NMR

erre ene a

0 1
  C       91.095    -317.712    -357.611
  O       89.821    -317.795    -356.997
  P       88.538    -317.127    -357.696
  C       88.412    -315.139    -356.067
  O       88.585    -315.545    -357.427
  C       88.643    -313.633    -355.943
  O       90.000    -313.278    -356.315
  C       87.747    -312.780    -356.825
  O       86.414    -312.741    -356.350
  C       88.484    -311.445    -356.786
  O       88.171    -310.724    -355.583
  C       89.962    -311.902    -356.765
  N       90.605    -311.745    -358.062
  C       91.377    -310.601    -358.235
  O       91.425    -309.738    -357.346
  N       92.076    -310.444    -359.409
  C       91.909    -311.299    -360.377
  N       92.674    -311.126    -361.492
  C       90.978    -312.441    -360.296
  C       90.376    -312.620    -359.114
  O       87.234    -317.779    -357.387
  O       88.865    -317.221    -359.273
  H       88.095    -317.618    -359.723
  H       88.203    -311.367    -354.855
  H       90.828    -313.079    -361.152
  H       89.691    -313.444    -358.952
  H       90.524    -311.332    -356.022
  H       88.219    -310.808    -357.629
  H       87.766    -313.174    -357.850
  H       88.504    -313.360    -354.874
  H       93.319    -310.341    -361.507
  H       89.131    -315.679    -355.447
  H       92.867    -311.886    -362.139
  H       87.401    -315.401    -355.738
  P       85.251    -312.665    -357.457
  C       85.275    -310.073    -357.357
  O       85.358    -311.227    -358.172
  O       83.912    -312.559    -356.591
  O       85.208    -313.840    -358.401
  H       83.192    -313.057    -357.032
  H       85.706    -309.234    -357.909
  H       85.824    -310.202    -356.419
  H       84.227    -309.862    -357.144
  H       91.818    -318.212    -357.001
  H       91.371    -316.684    -357.722
  H       91.058    -318.177    -358.574

 3  4  5  6  7  8  9  10  11  12  13  24  27  28  29  30  32 0
 6-311+G(2d,p)
 ****
 34  35 0
 6-311+G(2d,p)
 ****
 1  2  14  15  16  17  18  19  20  21  22  23  25  26 0
 3-21G
 ****
 31  33  36  37  38  39  40  41  42  43  44  45  46 0
 3-21G
 ****


