%nproc=1
%NoSave
%Mem=1900MB
#P OB98/GEN NMR

erre ene a

0 1
  C     -110.554    -175.584    -241.620
  O     -111.096    -175.576    -242.926
  H     -110.293    -176.612    -241.355
  H     -111.291    -175.212    -240.903
  H     -109.651    -174.969    -241.582
  P     -111.570    -174.151    -243.494
  C     -110.281    -173.895    -245.730
  O     -110.335    -173.579    -244.347
  C     -108.895    -173.587    -246.291
  O     -107.920    -174.529    -245.789
  C     -108.807    -173.638    -247.813
  O     -109.252    -172.424    -248.392
  C     -107.317    -173.877    -248.014
  O     -106.567    -172.649    -247.905
  C     -106.982    -174.828    -246.858
  N     -104.306    -178.851    -248.320
  C     -103.891    -177.577    -247.992
  N     -102.570    -177.323    -248.124
  N     -104.696    -176.633    -247.581
  C     -105.992    -177.022    -247.530
  C     -106.525    -178.260    -247.815
  C     -105.617    -179.303    -248.238
  O     -105.911    -180.468    -248.483
  N     -107.883    -178.270    -247.628
  C     -108.174    -177.034    -247.268
  N     -107.064    -176.236    -247.211
  O     -111.581    -173.215    -242.194
  O     -112.890    -174.144    -244.186
  H     -106.792    -172.069    -248.651
  H     -112.270    -172.533    -242.298
  H     -103.635    -179.539    -248.614
  H     -109.169    -176.674    -247.040
  H     -105.974    -174.658    -246.463
  H     -107.105    -174.283    -249.006
  H     -101.983    -177.876    -248.731
  H     -109.369    -174.495    -248.206
  H     -102.262    -176.384    -247.904
  H     -108.605    -172.595    -245.923
  H     -111.025    -173.294    -246.262
  H     -110.515    -174.956    -245.866
  P     -110.179    -172.518    -249.700
  C     -112.131    -171.035    -248.830
  O     -111.690    -172.335    -249.195
  O     -110.109    -174.068    -250.094
  O     -109.763    -171.632    -250.825
  H     -110.407    -174.192    -251.014
  H     -113.153    -171.080    -248.518
  H     -112.043    -170.379    -249.671
  H     -111.528    -170.667    -248.026

 6  7  8  9  10  11  12  13  14  15  26  29  33  34 0
 6-311+G(2d,p)
 ****
 36  38  39  40  41 0
 6-311+G(2d,p)
 ****
 1  2  3  4  5  16  17  18  19  20  21  22  23  24  25 0
 3-21G
 ****
 27  28  30  31  32  35  37  42  43  44  45  46  47 0
 3-21G
 ****
 48  49 0
 3-21G
 ****


