%nproc=1
%NoSave
%Mem=1900MB
#P OB98/GEN NMR

erre ene a

0 1
  C      650.246     585.819     284.718
  O      651.677     585.795     284.718
  P      652.459     585.835     286.116
  C      654.459     587.118     285.115
  O      654.037     585.948     285.803
  C      655.905     586.977     284.649
  O      656.732     586.369     285.658
  C      656.060     586.083     283.425
  O      655.623     586.772     282.253
  C      657.533     585.753     283.463
  O      658.330     586.830     282.883
  C      657.808     585.674     284.974
  N      657.940     584.305     285.460
  C      659.204     583.704     285.267
  O      660.106     584.332     284.689
  N      659.406     582.422     285.726
  C      658.435     581.798     286.317
  N      658.686     580.534     286.747
  C      657.100     582.391     286.526
  C      656.924     583.634     286.071
  O      652.078     584.771     287.097
  O      652.113     587.298     286.682
  H      658.070     586.882     281.937
  H      652.119     587.261     287.661
  H      656.317     581.819     287.037
  H      655.963     584.133     286.184
  H      658.739     586.215     285.238
  H      657.781     584.857     282.904
  H      655.473     585.161     283.557
  H      656.298     587.977     284.437
  H      659.619     580.154     286.589
  H      654.366     587.987     285.767
  H      658.015     579.979     287.266
  H      653.779     587.287     284.265
  P      654.324     586.192     281.498
  C      654.866     586.522     278.993
  O      654.154     586.994     280.111
  O      653.110     586.766     282.401
  O      654.259     584.693     281.397
  H      652.383     586.117     282.413
  H      654.418     586.950     278.096
  H      654.833     585.436     278.909
  H      655.907     586.845     279.052
  H      649.889     585.787     283.710
  H      649.904     586.717     285.189
  H      649.875     584.971     285.255

 3  4  5  6  7  8  9  10  11  12  13  23  27  28  29  30  32 0
 6-311+G(2d,p)
 ****
 34  35 0
 6-311+G(2d,p)
 ****
 1  2  14  15  16  17  18  19  20  21  22  24  25  26 0
 3-21G
 ****
 31  33  36  37  38  39  40  41  42  43  44  45  46 0
 3-21G
 ****


