%nproc=1
%NoSave
%Mem=1900MB
#P OB98/GEN NMR

erre ene a

0 1
  C     -224.384      52.695     -59.326
  O     -225.749      52.758     -58.970
  H     -223.784      53.072     -58.492
  H     -224.190      53.316     -60.205
  H     -224.095      51.661     -59.529
  P     -226.812      52.345     -60.098
  C     -226.966      54.739     -61.102
  O     -226.622      53.373     -61.313
  C     -227.472      55.345     -62.406
  O     -226.546      55.046     -63.479
  C     -228.815      54.794     -62.870
  O     -229.910      55.370     -62.178
  C     -228.793      55.181     -64.338
  O     -229.241      56.526     -64.541
  C     -227.305      55.024     -64.704
  N     -227.059      53.809     -65.480
  C     -226.800      54.006     -66.835
  O     -226.767      55.114     -67.368
  N     -226.613      52.869     -67.572
  C     -226.708      51.590     -67.111
  O     -226.584      50.612     -67.839
  C     -227.006      51.444     -65.674
  C     -227.169      52.547     -64.935
  O     -228.213      52.772     -59.451
  O     -226.790      50.905     -60.486
  H     -228.699      51.975     -59.168
  H     -228.734      57.077     -63.912
  H     -226.418      52.987     -68.557
  H     -227.088      50.443     -65.276
  H     -227.396      52.468     -63.880
  H     -226.967      55.884     -65.298
  H     -229.444      54.532     -64.920
  H     -228.825      53.701     -62.787
  H     -227.524      56.436     -62.288
  H     -226.081      55.294     -60.772
  H     -227.728      54.798     -60.320
  P     -231.332      54.630     -62.286
  C     -232.224      55.081     -64.720
  O     -231.504      54.240     -63.832
  O     -232.323      55.870     -62.066
  O     -231.488      53.509     -61.313
  H     -231.921      56.711     -62.343
  H     -232.225      54.649     -65.699
  H     -231.758      56.044     -64.756
  H     -233.232      55.185     -64.375

 6  7  8  9  10  11  12  13  14  15  16  27  31  32  33  34  35 0
 6-311+G(2d,p)
 ****
 36  37 0
 6-311+G(2d,p)
 ****
 1  2  3  4  5  17  18  19  20  21  22  23  24  25 0
 3-21G
 ****
 26  28  29  30  38  39  40  41  42  43  44  45 0
 3-21G
 ****


