%nproc=1
%NoSave
%Mem=1900MB
#P OB98/GEN NMR

erre ene a

0 1
  C      229.960    -292.816    -438.613
  O      231.090    -293.630    -438.880
  P      232.189    -293.920    -437.746
  C      232.852    -296.160    -438.852
  O      233.277    -294.863    -438.453
  C      233.940    -296.828    -439.686
  O      235.236    -296.495    -439.150
  C      233.878    -298.349    -439.704
  O      232.845    -298.811    -440.563
  C      235.297    -298.692    -440.144
  O      235.430    -298.540    -441.566
  C      236.123    -297.606    -439.421
  N      236.750    -298.093    -438.197
  C      237.745    -299.061    -438.350
  O      238.071    -299.466    -439.464
  N      238.382    -299.530    -437.228
  C      238.040    -299.091    -436.056
  N      238.752    -299.541    -434.985
  C      236.958    -298.112    -435.846
  C      236.367    -297.655    -436.949
  O      231.644    -294.453    -436.465
  O      232.977    -292.543    -437.590
  H      236.387    -298.547    -441.761
  H      232.572    -291.926    -436.931
  H      236.698    -297.782    -434.849
  H      235.578    -296.919    -436.884
  H      236.902    -297.219    -440.087
  H      235.601    -299.712    -439.888
  H      233.704    -298.738    -438.696
  H      233.880    -296.431    -440.710
  H      239.590    -300.070    -435.191
  H      231.945    -296.061    -439.457
  H      238.745    -299.045    -434.104
  H      232.619    -296.754    -437.961
  P      231.836    -299.911    -439.983
  C      230.476    -299.450    -442.141
  O      230.972    -300.419    -441.240
  O      230.807    -299.048    -439.114
  O      232.490    -300.985    -439.179
  H      231.024    -299.113    -438.166
  H      230.127    -299.959    -443.043
  H      231.261    -298.736    -442.419
  H      229.633    -298.916    -441.691
  H      229.354    -292.748    -439.492
  H      230.285    -291.838    -438.327
  H      229.388    -293.249    -437.819

 3  4  5  6  7  8  9  10  11  12  13  23  27  28  29  30  32 0
 6-311+G(2d,p)
 ****
 34  35 0
 6-311+G(2d,p)
 ****
 1  2  14  15  16  17  18  19  20  21  22  24  25  26 0
 3-21G
 ****
 31  33  36  37  38  39  40  41  42  43  44  45  46 0
 3-21G
 ****


