%nproc=1
%NoSave
%Mem=1900MB
#P OB98/GEN NMR

erre ene a

0 1
  C      694.092     530.136      39.468
  O      693.902     531.356      40.187
  P      693.642     532.687      39.330
  C      691.073     532.743      39.859
  O      692.102     532.693      38.889
  C      689.696     532.945      39.196
  O      689.686     534.243      38.556
  C      689.346     531.952      38.098
  O      687.936     531.979      37.882
  C      690.053     532.548      36.899
  O      689.547     532.025      35.666
  C      689.853     534.066      37.119
  N      690.977     534.889      36.628
  C      690.971     535.292      35.298
  O      690.082     535.018      34.496
  N      692.049     536.020      34.887
  C      693.103     536.411      35.662
  O      694.092     536.985      35.220
  C      692.992     536.077      37.092
  C      691.958     535.336      37.501
  O      694.442     532.421      37.962
  O      694.090     533.940      40.009
  H      690.177     532.316      34.970
  H      695.262     532.957      37.950
  H      692.096     536.266      33.909
  H      693.775     536.426      37.755
  H      691.875     535.062      38.554
  H      688.941     534.418      36.612
  H      691.115     532.297      36.941
  H      689.670     530.923      38.298
  H      688.925     532.957      39.971
  H      691.276     533.549      40.564
  H      691.064     531.813      40.438
  P      687.010     531.053      38.812
  C      685.019     532.665      39.032
  O      686.108     532.042      39.679
  O      687.721     529.971      39.562
  O      685.949     530.446      37.766
  H      685.544     529.651      38.147
  H      684.231     532.859      39.753
  H      684.625     532.031      38.227
  H      685.354     533.617      38.603
  H      694.254     529.336      40.160
  H      694.942     530.229      38.825
  H      693.222     529.929      38.881

 3  4  5  6  7  8  9  10  11  12  13  23  28  29  30  31  32 0
 6-311+G(2d,p)
 ****
 33  34 0
 6-311+G(2d,p)
 ****
 1  2  14  15  16  17  18  19  20  21  22  24  25  26  27 0
 3-21G
 ****
 35  36  37  38  39  40  41  42  43  44  45 0
 3-21G
 ****


