%nproc=1
%NoSave
%Mem=1900MB
#P OB98/GEN NMR

erre ene a

0 1
  C      115.931     212.362     161.574
  O      116.671     212.186     162.765
  H      114.907     212.006     161.710
  H      115.903     213.428     161.330
  H      116.406     211.822     160.749
  P      116.802     210.685     163.319
  C      119.223     210.569     162.374
  O      117.924     209.996     162.400
  C      120.213     209.551     161.821
  O      121.415     210.218     161.373
  C      120.669     208.517     162.844
  O      119.743     207.454     162.994
  C      121.961     208.038     162.205
  O      121.664     207.141     161.120
  C      122.546     209.353     161.665
  N      127.241     209.414     163.705
  C      126.686     208.647     162.740
  N      125.435     208.709     162.239
  C      124.734     209.689     162.828
  C      125.167     210.555     163.820
  C      126.488     210.387     164.268
  N      127.047     211.145     165.273
  N      124.152     211.416     164.190
  C      123.135     211.086     163.421
  N      123.427     210.027     162.605
  O      115.452     209.978     162.827
  O      117.033     210.549     164.786
  H      122.508     206.734     160.848
  H      115.322     209.132     163.296
  H      127.332     207.884     162.318
  H      122.168     211.572     163.426
  H      123.108     209.213     160.735
  H      122.602     207.496     162.905
  H      120.900     208.983     163.809
  H      119.758     209.067     160.948
  H      119.512     210.847     163.393
  H      127.945     210.852     165.625
  H      126.452     211.768     165.799
  H      119.213     211.465     161.746
  P      120.015     206.398     164.174
  C      118.143     207.515     165.589
  O      119.500     207.090     165.528
  O      121.606     206.431     164.326
  O      119.498     205.023     163.908
  H      121.947     205.558     164.598
  H      117.949     207.954     166.546
  H      117.499     206.673     165.446
  H      117.961     208.238     164.822

 6  7  8  9  10  11  12  13  14  15  25  28  32  33  34  35 0
 6-311+G(2d,p)
 ****
 36  39  40 0
 6-311+G(2d,p)
 ****
 1  2  3  4  5  16  17  18  19  20  21  22  23  24 0
 3-21G
 ****
 26  27  29  30  31  37  38  41  42  43  44  45  46  47 0
 3-21G
 ****
 48 0
 3-21G
 ****


