%nproc=1
%NoSave
%Mem=1900MB
#P OB98/GEN NMR

erre ene a

0 1
  C      223.909     138.829      37.909
  O      223.445     138.007      38.981
  P      223.130     136.461      38.704
  C      220.717     136.594      39.599
  O      221.987     135.973      39.718
  C      219.666     135.872      40.461
  O      219.360     134.576      39.878
  C      220.132     135.643      41.907
  O      219.183     136.086      42.877
  C      220.470     134.164      41.938
  O      220.416     133.610      43.245
  C      219.512     133.572      40.898
  N      220.003     132.301      40.359
  C      219.818     131.174      41.147
  O      219.342     131.217      42.281
  N      220.256     129.991      40.619
  C      220.919     129.841      39.436
  O      221.336     128.767      39.027
  C      221.145     131.080      38.672
  C      220.684     132.234      39.161
  O      224.317     135.562      38.610
  O      222.344     136.503      37.302
  H      220.521     132.634      43.171
  H      222.632     135.734      36.773
  H      220.112     129.160      41.173
  H      221.688     131.004      37.742
  H      220.847     133.159      38.628
  H      218.527     133.381      41.339
  H      221.499     134.038      41.578
  H      221.032     136.225      42.131
  H      218.758     136.481      40.444
  H      220.395     136.569      38.557
  H      220.802     137.652      39.869
  P      219.263     137.486      43.647
  C      220.592     136.440      45.610
  O      219.464     137.191      45.208
  O      218.181     138.465      43.328
  O      220.687     138.067      43.194
  H      220.605     139.027      43.041
  H      220.396     136.020      46.601
  H      221.463     137.098      45.673
  H      220.798     135.624      44.916
  H      224.068     139.825      38.266
  H      223.178     138.843      37.128
  H      224.829     138.435      37.530

 3  4  5  6  7  8  9  10  11  12  13  23  28  29  30  31  32 0
 6-311+G(2d,p)
 ****
 33  34 0
 6-311+G(2d,p)
 ****
 1  2  14  15  16  17  18  19  20  21  22  24  25  26  27 0
 3-21G
 ****
 35  36  37  38  39  40  41  42  43  44  45 0
 3-21G
 ****


