%nproc=1
%NoSave
%Mem=1900MB
#P OB98/GEN NMR

erre ene a

0 1
  C     -110.618     693.549    -523.958
  O     -110.605     692.227    -524.443
  H     -109.791     693.678    -523.251
  H     -111.566     693.739    -523.427
  H     -110.498     694.278    -524.767
  P     -111.497     691.863    -525.727
  C     -109.515     691.159    -527.236
  O     -110.703     690.749    -526.556
  C     -108.439     690.057    -527.167
  O     -107.883     690.011    -525.815
  C     -109.039     688.666    -527.442
  O     -108.073     687.778    -528.000
  C     -109.413     688.175    -526.045
  O     -109.505     686.761    -525.948
  C     -108.280     688.784    -525.197
  N     -108.308     687.027    -520.408
  C     -107.991     686.376    -521.581
  N     -107.629     685.067    -521.448
  N     -108.044     686.923    -522.764
  C     -108.501     688.210    -522.740
  C     -108.866     688.951    -521.641
  C     -108.770     688.343    -520.333
  O     -109.065     688.871    -519.281
  N     -109.293     690.211    -522.016
  C     -109.172     690.217    -523.333
  N     -108.674     689.035    -523.818
  O     -111.359     693.157    -526.672
  O     -112.941     691.550    -525.435
  H     -110.095     686.466    -526.660
  H     -112.101     693.210    -527.286
  H     -108.224     686.569    -519.515
  H     -109.431     691.049    -523.984
  H     -107.417     688.112    -525.192
  H     -110.397     688.589    -525.786
  H     -107.760     684.562    -520.593
  H     -109.919     688.707    -528.084
  H     -107.690     684.499    -522.305
  H     -107.609     690.301    -527.844
  H     -109.170     692.070    -526.741
  H     -109.749     691.414    -528.273
  P     -108.589     686.459    -528.746
  C     -107.347     686.869    -531.058
  O     -107.578     686.065    -529.926
  O     -109.900     686.960    -529.537
  O     -108.896     685.295    -527.833
  H     -110.711     686.514    -529.178
  H     -106.634     686.390    -531.696
  H     -106.966     687.820    -530.748
  H     -108.265     687.008    -531.590

 6  7  8  9  10  11  12  13  14  15  26  29  33  34 0
 6-311+G(2d,p)
 ****
 36  38  39  40  41 0
 6-311+G(2d,p)
 ****
 1  2  3  4  5  16  17  18  19  20  21  22  23  24  25 0
 3-21G
 ****
 27  28  30  31  32  35  37  42  43  44  45  46  47 0
 3-21G
 ****
 48  49 0
 3-21G
 ****


