%nproc=1
%NoSave
%Mem=1900MB
#P OB98/GEN NMR

erre ene a

0 1
  C     -569.195    1085.460    -704.866
  O     -569.048    1085.296    -706.267
  P     -568.813    1083.805    -706.818
  C     -569.668    1084.610    -709.140
  O     -568.648    1083.950    -708.404
  C     -569.068    1085.372    -710.329
  O     -568.293    1086.495    -709.865
  C     -568.141    1084.566    -711.207
  O     -568.831    1083.761    -712.136
  C     -567.376    1085.658    -711.925
  O     -568.177    1086.194    -712.996
  C     -567.217    1086.731    -710.809
  N     -562.294    1088.062    -711.048
  C     -563.294    1088.230    -711.902
  N     -564.582    1087.826    -711.773
  C     -564.757    1087.167    -710.628
  C     -563.824    1086.898    -709.648
  C     -562.535    1087.379    -709.869
  N     -561.486    1087.239    -708.978
  N     -564.374    1086.192    -708.607
  C     -565.649    1086.063    -708.932
  N     -565.940    1086.640    -710.130
  O     -570.267    1083.143    -706.664
  O     -567.781    1083.027    -706.116
  H     -568.190    1085.530    -713.700
  H     -570.191    1082.168    -706.626
  H     -563.060    1088.743    -712.825
  H     -566.400    1085.566    -708.327
  H     -567.320    1087.753    -711.188
  H     -566.427    1085.331    -712.362
  H     -567.446    1083.958    -710.592
  H     -569.907    1085.780    -710.926
  H     -570.193    1085.325    -708.489
  H     -560.653    1087.769    -709.128
  H     -561.729    1086.928    -708.026
  H     -570.382    1083.860    -709.499
  P     -568.259    1082.290    -712.403
  C     -570.531    1081.897    -713.608
  O     -569.157    1081.690    -713.619
  O     -568.760    1081.469    -711.138
  O     -566.788    1082.245    -712.569
  H     -568.163    1080.699    -710.967
  H     -570.928    1081.724    -714.625
  H     -570.782    1082.937    -713.348
  H     -571.044    1081.218    -712.909
  H     -569.344    1086.496    -704.642
  H     -568.312    1085.111    -704.372
  H     -570.040    1084.897    -704.528

 3  4  5  6  7  8  9  10  11  12  22  25  29  30  31  32 0
 6-311+G(2d,p)
 ****
 33  36  37 0
 6-311+G(2d,p)
 ****
 1  2  13  14  15  16  17  18  19  20  21  23  24  26 0
 3-21G
 ****
 27  28  34  35  38  39  40  41  42  43  44  45  46  47  48 0
 3-21G
 ****


