%nproc=1
%NoSave
%Mem=1900MB
#P OB98/GEN NMR

erre ene a

0 1
  C       69.254      47.619      -8.501
  O       68.120      47.128      -7.812
  H       69.783      46.773      -8.948
  H       69.932      48.136      -7.818
  H       68.942      48.297      -9.299
  P       67.333      48.134      -6.840
  C       69.156      47.482      -5.137
  O       67.766      47.713      -5.349
  C       69.475      47.358      -3.648
  O       70.839      46.929      -3.451
  C       69.364      48.665      -2.878
  O       68.058      49.180      -2.774
  C       70.142      48.347      -1.610
  O       69.354      47.646      -0.649
  C       71.257      47.422      -2.158
  N       72.549      48.094      -2.230
  C       73.087      48.509      -1.018
  O       72.522      48.357       0.065
  N       74.296      49.146      -1.090
  C       74.978      49.440      -2.233
  O       76.051      50.033      -2.232
  C       74.340      49.010      -3.488
  C       73.173      48.364      -3.431
  O       65.849      48.204      -7.044
  O       68.078      49.533      -7.051
  H       69.934      47.463       0.115
  H       67.538      50.282      -6.698
  H       74.711      49.442      -0.220
  H       74.847      49.238      -4.415
  H       72.684      48.035      -4.344
  H       71.369      46.541      -1.513
  H       70.521      49.248      -1.123
  H       69.944      49.428      -3.412
  H       68.821      46.590      -3.223
  H       69.704      48.334      -5.554
  H       69.460      46.573      -5.666
  P       67.712      50.735      -2.810
  C       67.190      51.142      -0.281
  O       66.697      51.060      -1.613
  O       67.429      51.328      -4.152
  O       69.088      51.386      -2.269
  H       69.202      52.240      -2.732
  H       66.383      51.365       0.385
  H       67.926      51.916      -0.220
  H       67.632      50.207      -0.006

 6  7  8  9  10  11  12  13  14  15  16  26  31  32  33  34  35 0
 6-311+G(2d,p)
 ****
 36  37 0
 6-311+G(2d,p)
 ****
 1  2  3  4  5  17  18  19  20  21  22  23  24  25 0
 3-21G
 ****
 27  28  29  30  38  39  40  41  42  43  44  45 0
 3-21G
 ****


