%nproc=1
%NoSave
%Mem=1900MB
#P OB98/GEN NMR

erre ene a

0 1
  C      172.197    -623.736    -636.393
  O      172.366    -624.997    -635.774
  H      171.409    -623.819    -637.146
  H      173.119    -623.423    -636.888
  H      171.905    -622.989    -635.651
  P      173.556    -625.125    -634.707
  C      174.785    -627.340    -635.292
  O      173.813    -626.690    -634.478
  C      175.240    -628.629    -634.615
  O      175.584    -628.358    -633.230
  C      174.172    -629.719    -634.560
  O      174.038    -630.411    -635.788
  C      174.716    -630.599    -633.448
  O      175.688    -631.534    -633.945
  C      175.360    -629.576    -632.492
  N      174.536    -629.360    -631.302
  C      175.232    -629.208    -630.105
  O      176.464    -629.257    -630.028
  N      174.466    -629.044    -628.985
  C      173.101    -629.065    -628.942
  O      172.475    -628.970    -627.893
  C      172.419    -629.248    -630.230
  C      173.155    -629.384    -631.338
  O      172.872    -624.647    -633.341
  O      174.777    -624.331    -635.025
  H      173.192    -623.758    -633.103
  H      175.239    -632.037    -634.651
  H      174.950    -628.932    -628.109
  H      171.331    -629.274    -630.232
  H      172.678    -629.534    -632.307
  H      176.342    -629.938    -632.168
  H      173.915    -631.175    -632.985
  H      173.212    -629.289    -634.237
  H      176.138    -628.998    -635.123
  H      175.650    -626.684    -635.425
  H      174.346    -627.544    -636.274
  P      172.548    -630.719    -636.312
  C      172.886    -633.300    -636.672
  O      172.679    -632.021    -637.240
  O      172.342    -629.510    -637.334
  O      171.541    -630.802    -635.215
  H      173.189    -629.184    -637.701
  H      172.946    -634.031    -637.451
  H      172.070    -633.538    -636.022
  H      173.799    -633.299    -636.113

 6  7  8  9  10  11  12  13  14  15  16  27  31  32  33  34  35 0
 6-311+G(2d,p)
 ****
 36  37 0
 6-311+G(2d,p)
 ****
 1  2  3  4  5  17  18  19  20  21  22  23  24  25 0
 3-21G
 ****
 26  28  29  30  38  39  40  41  42  43  44  45 0
 3-21G
 ****


