%nproc=1
%NoSave
%Mem=1900MB
#P OB98/GEN NMR

erre ene a

0 1
  C      642.001    -889.110     468.984
  O      641.285    -889.690     470.060
  H      642.640    -888.320     469.376
  H      641.302    -888.670     468.260
  H      642.622    -889.860     468.495
  P      640.380    -890.990     469.785
  C      641.720    -892.480     471.413
  O      641.306    -892.260     470.063
  C      640.828    -893.520     472.068
  O      640.846    -894.740     471.311
  C      641.280    -893.900     473.479
  O      640.918    -892.900     474.413
  C      640.551    -895.230     473.655
  O      639.169    -895.020     474.031
  C      640.663    -895.850     472.247
  N      641.734    -896.820     472.132
  C      641.336    -898.120     471.841
  O      640.168    -898.490     471.711
  N      642.366    -899.040     471.722
  C      643.676    -898.790     471.972
  O      644.548    -899.670     471.941
  C      644.037    -897.410     472.297
  C      643.065    -896.490     472.361
  O      639.647    -891.000     468.478
  O      639.354    -890.990     471.020
  H      638.819    -894.360     473.407
  H      638.476    -890.700     470.714
  H      642.093    -900.000     471.524
  H      645.082    -897.180     472.487
  H      643.285    -895.470     472.608
  H      639.721    -896.330     471.972
  H      640.996    -895.840     474.438
  H      642.346    -894.090     473.499
  H      639.786    -893.130     472.070
  H      641.645    -891.520     471.950
  H      642.781    -892.800     471.403
  P      642.057    -892.170     475.267
  C      641.249    -889.800     474.671
  O      642.330    -890.720     474.607
  O      643.297    -892.980     475.525
  O      641.344    -891.790     476.641
  H      641.792    -892.230     477.396
  H      641.536    -888.879     474.208
  H      640.994    -889.620     475.694
  H      640.403    -890.208     474.159

 6  7  8  9  10  11  12  13  14  15  16  26  31  32  33  34  35 0
 6-311+G(2d,p)
 ****
 36  37 0
 6-311+G(2d,p)
 ****
 1  2  3  4  5  17  18  19  20  21  22  23  24  25 0
 3-21G
 ****
 27  28  29  30  38  39  40  41  42  43  44  45 0
 3-21G
 ****


