%nproc=1
%NoSave
%Mem=1900MB
#P OB98/GEN NMR

erre ene a

0 1
  C     -155.231    -494.074    -897.860
  O     -155.551    -495.416    -897.550
  H     -155.644    -493.830    -898.840
  H     -154.145    -493.943    -897.890
  H     -155.660    -493.392    -897.120
  P     -155.001    -495.977    -896.150
  C     -155.548    -498.127    -894.790
  O     -156.016    -497.142    -895.710
  C     -156.182    -499.479    -895.090
  O     -157.616    -499.445    -894.850
  C     -155.997    -499.967    -896.530
  O     -154.722    -500.564    -896.700
  C     -157.146    -500.941    -896.670
  O     -156.809    -502.215    -896.090
  C     -158.259    -500.250    -895.880
  N     -161.959    -500.269    -899.330
  C     -161.355    -501.313    -898.660
  N     -161.742    -502.576    -899.010
  N     -160.418    -501.170    -897.760
  C     -160.096    -499.872    -897.530
  C     -160.645    -498.739    -898.100
  C     -161.692    -498.926    -899.080
  O     -162.319    -498.038    -899.660
  N     -160.078    -497.598    -897.600
  C     -159.157    -498.037    -896.760
  N     -159.133    -499.407    -896.690
  O     -155.327    -494.796    -895.110
  O     -153.555    -496.338    -896.130
  H     -155.964    -502.528    -896.470
  H     -154.664    -494.793    -894.410
  H     -162.673    -500.452    -900.000
  H     -158.508    -497.406    -896.160
  H     -158.914    -500.961    -895.360
  H     -157.386    -501.133    -897.710
  H     -162.181    -502.748    -899.900
  H     -156.130    -499.119    -897.240
  H     -161.280    -503.343    -898.560
  H     -155.753    -500.206    -894.390
  H     -155.828    -497.816    -893.770
  H     -154.457    -498.193    -894.860
  P     -153.877    -500.168    -898.020
  C     -151.321    -499.903    -898.430
  O     -152.408    -499.783    -897.500
  O     -154.501    -498.745    -898.430
  O     -153.949    -501.153    -899.140
  H     -154.268    -498.542    -899.350
  H     -150.408    -499.616    -897.951
  H     -151.499    -499.265    -899.271
  H     -151.246    -500.917    -898.762

 6  7  8  9  10  11  12  13  14  15  26  29  33  34 0
 6-311+G(2d,p)
 ****
 36  38  39  40  41 0
 6-311+G(2d,p)
 ****
 1  2  3  4  5  16  17  18  19  20  21  22  23  24  25 0
 3-21G
 ****
 27  28  30  31  32  35  37  42  43  44  45  46  47 0
 3-21G
 ****
 48  49 0
 3-21G
 ****


