%nproc=1
%NoSave
%Mem=1900MB
#P OB98/GEN NMR

erre ene a

0 1
  C      877.847    -893.790     155.425
  O      877.814    -895.070     154.777
  P      876.496    -895.420     153.913
  C      877.655    -895.280     151.565
  O      876.703    -894.720     152.485
  C      876.933    -896.200     150.565
  O      875.931    -895.470     149.885
  C      877.854    -896.780     149.524
  O      878.623    -897.860     150.044
  C      876.845    -897.200     148.457
  O      876.346    -898.530     148.704
  C      875.713    -896.130     148.601
  N      875.689    -895.200     147.510
  C      874.598    -895.320     146.618
  O      873.778    -896.200     146.818
  N      874.522    -894.460     145.566
  C      875.453    -893.570     145.357
  N      875.297    -892.750     144.287
  C      876.613    -893.430     146.253
  C      876.679    -894.260     147.286
  O      875.377    -894.550     154.601
  O      876.160    -896.870     153.879
  H      877.132    -899.120     148.642
  H      874.479    -894.950     154.492
  H      877.358    -892.660     146.048
  H      877.509    -894.230     148.001
  H      874.753    -896.630     148.657
  H      877.302    -897.210     147.444
  H      878.520    -895.990     149.115
  H      876.445    -897.010     151.144
  H      874.510    -892.890     143.688
  H      878.379    -895.850     152.155
  H      875.970    -892.010     144.068
  H      878.177    -894.480     151.051
  P      879.641    -898.570     149.057
  C      881.511    -897.170     150.112
  O      880.880    -897.550     148.921
  O      878.938    -898.410     147.629
  O      880.010    -900.000     149.368
  H      879.426    -898.930     146.966
  H      882.414    -896.580     149.872
  H      881.785    -898.010     150.718
  H      880.838    -896.490     150.700
  H      878.768    -893.685     155.960
  H      877.027    -893.715     156.108
  H      877.771    -893.016     154.690

 3  4  5  6  7  8  9  10  11  12  13  21  23  27  28  29  30  32 0
 6-311+G(2d,p)
 ****
 34  35 0
 6-311+G(2d,p)
 ****
 1  2  14  15  16  17  18  19  20  22  24  25  26 0
 3-21G
 ****
 31  33  36  37  38  39  40  41  42  43  44  45  46 0
 3-21G
 ****


