%nproc=1
%NoSave
%Mem=1900MB
#P OB98/GEN NMR

erre ene a

0 1
  C     -148.163    -239.585     -54.165
  O     -148.429    -239.211     -52.825
  H     -148.298    -238.711     -54.809
  H     -148.861    -240.365     -54.480
  H     -147.134    -239.941     -54.266
  P     -148.061    -240.288     -51.701
  C     -145.913    -241.662     -51.080
  O     -146.574    -240.820     -52.016
  C     -144.941    -242.589     -51.807
  O     -145.653    -243.602     -52.543
  C     -144.095    -241.903     -52.864
  O     -143.089    -241.083     -52.309
  C     -143.547    -243.109     -53.615
  O     -142.380    -243.644     -52.979
  C     -144.726    -244.109     -53.533
  N     -145.352    -244.312     -54.826
  C     -145.182    -245.590     -55.379
  O     -144.555    -246.452     -54.762
  N     -145.696    -245.837     -56.628
  C     -146.298    -244.891     -57.277
  N     -146.753    -245.194     -58.523
  C     -146.496    -243.533     -56.732
  C     -146.002    -243.314     -55.512
  O     -148.985    -241.531     -52.098
  O     -148.241    -239.815     -50.298
  H     -142.605    -243.740     -52.029
  H     -148.935    -241.773     -53.036
  H     -147.016    -242.783     -57.308
  H     -146.103    -242.346     -55.035
  H     -144.378    -245.083     -53.164
  H     -143.259    -242.852     -54.638
  H     -144.736    -241.336     -53.553
  H     -144.313    -243.083     -51.053
  H     -146.545    -246.121     -58.880
  H     -146.640    -242.247     -50.508
  H     -147.165    -244.519     -59.149
  H     -145.374    -241.021     -50.376
  P     -142.406    -239.909     -53.160
  C     -143.251    -237.623     -53.993
  O     -143.601    -238.968     -53.689
  O     -141.462    -240.359     -54.223
  O     -141.733    -238.991     -52.034
  H     -142.353    -238.624     -51.379
  H     -144.119    -237.097     -54.333
  H     -142.505    -237.613     -54.760
  H     -142.866    -237.147     -53.115

 6  7  8  9  10  11  12  13  14  15  16  26  30  31  32  33  35 0
 6-311+G(2d,p)
 ****
 37  38 0
 6-311+G(2d,p)
 ****
 1  2  3  4  5  17  18  19  20  21  22  23  24  25 0
 3-21G
 ****
 27  28  29  34  36  39  40  41  42  43  44  45  46 0
 3-21G
 ****


