%nproc=1
%NoSave
%Mem=1900MB
#P OB98/GEN NMR

erre ene a

0 1
  C      -78.621    -269.694      83.667
  O      -77.987    -268.783      84.540
  H      -78.725    -270.655      84.180
  H      -78.008    -269.843      82.776
  H      -79.615    -269.343      83.381
  P      -77.960    -267.227      84.152
  C      -75.394    -266.991      84.304
  O      -76.536    -266.967      83.460
  C      -74.424    -265.876      83.912
  O      -73.172    -266.081      84.637
  C      -74.092    -265.851      82.404
  O      -73.894    -264.490      82.004
  C      -72.774    -266.598      82.374
  O      -72.046    -266.334      81.202
  C      -72.118    -266.092      83.657
  N      -70.995    -266.933      84.055
  C      -69.803    -266.762      83.360
  O      -69.659    -265.957      82.442
  N      -68.782    -267.605      83.703
  C      -68.869    -268.651      84.574
  O      -67.944    -269.424      84.786
  C      -70.171    -268.820      85.242
  C      -71.157    -267.965      84.959
  O      -78.301    -266.273      85.249
  O      -78.962    -267.112      82.910
  H      -72.488    -266.740      80.435
  H      -79.274    -266.191      82.809
  H      -67.906    -267.482      83.217
  H      -70.280    -269.650      85.927
  H      -72.135    -268.068      85.417
  H      -71.766    -265.057      83.536
  H      -72.951    -267.677      82.423
  H      -74.865    -266.316      81.788
  H      -74.831    -264.912      84.243
  H      -74.908    -267.967      84.193
  H      -75.708    -266.868      85.347
  P      -75.052    -263.647      81.275
  C      -74.197    -264.100      78.895
  O      -75.303    -264.204      79.788
  O      -74.863    -262.164      81.342
  O      -76.391    -264.061      82.054
  H      -76.906    -263.256      82.253
  H      -74.471    -264.497      77.940
  H      -73.369    -264.653      79.287
  H      -73.921    -263.072      78.788

 6  7  8  9  10  11  12  13  14  15  16  26  31  32  33  34  35 0
 6-311+G(2d,p)
 ****
 36  37 0
 6-311+G(2d,p)
 ****
 1  2  3  4  5  17  18  19  20  21  22  23  24  25 0
 3-21G
 ****
 27  28  29  30  38  39  40  41  42  43  44  45 0
 3-21G
 ****


