%nproc=1
%NoSave
%Mem=1900MB
#P OB98/GEN NMR

erre ene a

0 1
  C     -152.875     154.491      -5.029
  O     -153.311     155.559      -4.203
  P     -153.355     157.027      -4.856
  C     -155.598     156.171      -5.865
  O     -154.425     156.959      -6.056
  C     -156.864     157.031      -5.942
  O     -156.821     157.820      -7.158
  C     -158.165     156.227      -5.946
  O     -159.138     156.958      -5.194
  C     -158.575     156.214      -7.407
  O     -159.981     156.023      -7.563
  C     -158.055     157.590      -7.870
  N     -157.857     157.640      -9.316
  C     -159.010     157.622     -10.114
  O     -160.116     157.476      -9.595
  N     -158.873     157.707     -11.481
  C     -157.687     157.707     -12.006
  N     -157.600     157.801     -13.362
  C     -156.449     157.610     -11.207
  C     -156.605     157.603      -9.885
  O     -151.952     157.124      -5.618
  O     -153.546     158.137      -3.877
  H     -160.195     156.088      -8.522
  H     -151.621     158.038      -5.626
  H     -155.484     157.578     -11.699
  H     -155.750     157.558      -9.216
  H     -158.758     158.384      -7.584
  H     -158.052     155.411      -7.937
  H     -158.048     155.227      -5.518
  H     -156.852     157.732      -5.096
  H     -158.467     157.850     -13.888
  H     -155.559     155.714      -4.870
  H     -156.719     157.805     -13.861
  H     -155.627     155.374      -6.607
  P     -160.421     156.164      -4.655
  C     -158.998     155.267      -2.710
  O     -159.821     154.936      -3.812
  O     -160.924     155.425      -5.991
  O     -161.527     156.944      -4.024
  H     -161.751     154.943      -5.806
  H     -158.771     154.352      -2.154
  H     -159.509     155.967      -2.048
  H     -158.055     155.698      -3.061
  H     -152.895     153.578      -4.471
  H     -151.877     154.683      -5.363
  H     -153.525     154.406      -5.875

 3  4  5  6  7  8  9  10  11  12  13  21  23  27  28  29  30  32 0
 6-311+G(2d,p)
 ****
 34  35 0
 6-311+G(2d,p)
 ****
 1  2  14  15  16  17  18  19  20  22  24  25  26 0
 3-21G
 ****
 31  33  36  37  38  39  40  41  42  43  44  45  46 0
 3-21G
 ****


