%nproc=1
%NoSave
%Mem=1900MB
#P OB98/GEN NMR

erre ene a

0 1
  C      -32.300      -0.507      51.418
  O      -30.950      -0.366      50.961
  P      -30.367       1.044      50.461
  C      -30.142       2.501      52.563
  O      -29.449       1.712      51.602
  C      -29.536       2.409      53.971
  O      -29.959       1.189      54.642
  C      -28.001       2.430      54.017
  O      -27.653       3.060      55.251
  C      -27.667       0.945      54.063
  O      -26.354       0.674      54.534
  C      -28.777       0.438      54.979
  N      -28.354      -4.143      57.238
  C      -28.209      -2.888      57.717
  N      -28.376      -1.718      57.065
  C      -28.769      -1.927      55.797
  C      -28.973      -3.149      55.170
  C      -28.733      -4.299      55.945
  N      -28.836      -5.580      55.450
  N      -29.343      -2.967      53.851
  C      -29.359      -1.658      53.683
  N      -29.021      -0.984      54.834
  O      -31.398       1.966      49.892
  O      -29.308       0.650      49.321
  H      -26.228       1.146      55.380
  H      -29.437       1.230      48.548
  H      -27.915      -2.813      58.761
  H      -29.579      -1.147      52.758
  H      -28.544       0.633      56.035
  H      -27.750       0.527      53.050
  H      -27.545       2.944      53.172
  H      -29.944       3.244      54.559
  H      -31.191       2.168      52.596
  H      -28.559      -6.336      56.053
  H      -28.995      -5.715      54.459
  H      -30.137       3.546      52.232
  P      -26.437       4.103      55.352
  C      -27.453       6.330      54.598
  O      -27.085       5.528      55.706
  O      -25.515       4.108      54.175
  O      -25.671       3.699      56.699
  H      -24.765       4.070      56.680
  H      -26.560       6.780      54.152
  H      -28.124       7.122      54.939
  H      -27.977       5.733      53.841
  H      -32.476      -1.524      51.702
  H      -32.973      -0.234      50.632
  H      -32.459       0.131      52.262

 3  4  5  6  7  8  9  10  11  12  22  25  29  30  31  32 0
 6-311+G(2d,p)
 ****
 33  36  37 0
 6-311+G(2d,p)
 ****
 1  2  13  14  15  16  17  18  19  20  21  23  24  26 0
 3-21G
 ****
 27  28  34  35  38  39  40  41  42  43  44  45  46  47  48 0
 3-21G
 ****


