%nproc=1
%NoSave
%Mem=1900MB
#P OB98/GEN NMR

erre ene a

0 1
  C     -861.306     162.571     541.319
  O     -862.407     163.272     541.855
  H     -861.582     162.177     540.335
  H     -861.041     161.721     541.963
  H     -860.440     163.232     541.197
  P     -862.212     164.073     543.226
  C     -862.895     166.320     542.155
  O     -861.881     165.594     542.843
  C     -862.257     167.237     541.112
  O     -861.382     166.481     540.243
  C     -863.265     167.925     540.196
  O     -863.921     168.991     540.845
  C     -862.372     168.337     539.035
  O     -861.662     169.542     539.336
  C     -861.407     167.129     538.942
  N     -861.768     166.189     537.887
  C     -860.965     166.185     536.747
  O     -860.025     166.962     536.598
  N     -861.319     165.299     535.769
  C     -862.428     164.500     535.774
  O     -862.748     163.775     534.828
  C     -863.250     164.548     536.983
  C     -862.902     165.375     537.970
  O     -861.278     163.452     544.213
  O     -863.710     164.171     543.822
  H     -862.319     170.265     539.315
  H     -863.798     163.537     544.558
  H     -860.759     165.293     534.929
  H     -864.134     163.923     537.038
  H     -863.501     165.435     538.881
  H     -860.379     167.470     538.757
  H     -862.939     168.509     538.122
  H     -864.004     167.193     539.832
  H     -861.647     167.986     541.642
  H     -863.448     166.917     542.882
  H     -863.585     165.603     541.677
  P     -865.506     168.972     541.042
  C     -865.526     169.453     543.565
  O     -865.819     168.503     542.545
  O     -866.274     168.236     539.982
  O     -865.915     170.523     541.057
  H     -866.526     170.707     540.319
  H     -865.772     169.038     544.520
  H     -866.102     170.340     543.403
  H     -864.484     169.695     543.538

 6  7  8  9  10  11  12  13  14  15  16  26  31  32  33  34  35 0
 6-311+G(2d,p)
 ****
 36  37 0
 6-311+G(2d,p)
 ****
 1  2  3  4  5  17  18  19  20  21  22  23  24  25 0
 3-21G
 ****
 27  28  29  30  38  39  40  41  42  43  44  45 0
 3-21G
 ****


