%nproc=1
%NoSave
%Mem=1900MB
#P OB98/GEN NMR

erre ene a

0 1
  C        0.489     -66.863    -234.069
  O        0.883     -68.029    -234.762
  H       -0.084     -66.225    -234.747
  H        1.370     -66.313    -233.729
  H       -0.139     -67.121    -233.211
  P        1.641     -69.160    -233.916
  C        3.802     -68.972    -235.359
  O        3.213     -68.861    -234.071
  C        5.306     -69.212    -235.221
  O        5.950     -67.950    -234.897
  C        5.662     -70.206    -234.107
  O        6.783     -70.990    -234.522
  C        6.061     -69.306    -232.952
  O        6.914     -69.934    -232.004
  C        6.734     -68.150    -233.701
  N        6.793     -66.924    -232.910
  C        8.021     -66.278    -232.820
  O        9.040     -66.622    -233.421
  N        8.057     -65.184    -231.993
  C        7.022     -64.703    -231.248
  O        7.120     -63.732    -230.508
  C        5.750     -65.433    -231.377
  C        5.697     -66.494    -232.187
  O        1.434     -70.482    -234.795
  O        1.183     -69.328    -232.508
  H        0.620     -70.946    -234.523
  H        7.663     -70.336    -232.488
  H        8.941     -64.703    -231.918
  H        4.907     -65.085    -230.794
  H        4.779     -67.063    -232.292
  H        7.744     -68.437    -234.019
  H        5.168     -68.956    -232.422
  H        4.832     -70.861    -233.843
  H        5.706     -69.541    -236.187
  H        3.636     -68.041    -235.910
  H        3.334     -69.799    -235.901
  P        6.477     -72.381    -235.267
  C        6.861     -73.801    -233.103
  O        5.968     -73.388    -234.124
  O        7.952     -72.886    -235.612
  O        5.565     -72.225    -236.440
  H        8.606     -72.680    -234.925
  H        6.355     -74.465    -232.434
  H        7.205     -72.944    -232.562
  H        7.696     -74.305    -233.542

 6  7  8  9  10  11  12  13  14  15  16  27  31  32  33  34  35 0
 6-311+G(2d,p)
 ****
 36  37 0
 6-311+G(2d,p)
 ****
 1  2  3  4  5  17  18  19  20  21  22  23  24  25 0
 3-21G
 ****
 26  28  29  30  38  39  40  41  42  43  44  45 0
 3-21G
 ****


