%nproc=1
%NoSave
%Mem=1900MB
#P OB98/GEN NMR

erre ene a

0 1
  C      364.037     292.661    1056.818
  O      363.151     291.770    1056.118
  P      363.542     290.250    1055.782
  C      365.302     290.852    1053.988
  O      365.066     290.224    1055.243
  C      366.767     290.785    1053.585
  O      367.583     291.673    1054.407
  C      367.395     289.393    1053.718
  O      367.039     288.572    1052.650
  C      368.893     289.741    1053.790
  O      369.430     289.977    1052.471
  C      368.874     291.072    1054.612
  N      372.515     290.970    1058.193
  C      372.565     291.248    1056.856
  N      371.546     291.227    1055.977
  C      370.384     290.947    1056.586
  C      370.177     290.673    1057.915
  C      371.324     290.698    1058.749
  N      371.285     290.417    1060.101
  N      368.854     290.413    1058.192
  C      368.256     290.555    1057.008
  N      369.143     290.879    1056.011
  O      362.580     289.554    1054.894
  O      363.647     289.532    1057.210
  H      370.342     290.284    1052.585
  H      363.445     288.591    1057.107
  H      373.549     291.468    1056.460
  H      367.192     290.419    1056.839
  H      369.620     291.789    1054.221
  H      369.485     288.958    1054.260
  H      367.100     288.937    1054.671
  H      366.865     291.127    1052.550
  H      365.002     291.915    1054.057
  H      372.141     290.430    1060.625
  H      370.398     290.147    1060.521
  H      364.685     290.376    1053.223
  P      366.069     287.323    1052.865
  C      368.098     285.758    1053.149
  O      366.887     286.244    1053.736
  O      365.399     286.781    1051.647
  O      364.997     287.868    1053.935
  H      364.136     287.409    1053.795
  H      367.868     284.992    1052.398
  H      368.696     285.330    1053.940
  H      368.661     286.575    1052.698
  H      363.568     293.616    1056.928
  H      364.944     292.771    1056.262
  H      364.258     292.258    1057.784

 3  4  5  6  7  8  9  10  11  12  22  25  29  30  31  32 0
 6-311+G(2d,p)
 ****
 33  36  37 0
 6-311+G(2d,p)
 ****
 1  2  13  14  15  16  17  18  19  20  21  23  24  26 0
 3-21G
 ****
 27  28  34  35  38  39  40  41  42  43  44  45  46  47  48 0
 3-21G
 ****


