%nproc=1
%NoSave
%Mem=1900MB
#P OB98/GEN NMR

erre ene a

0 1
  C      124.241     253.839     604.341
  O      125.061     253.573     605.462
  P      124.984     254.517     606.750
  C      126.007     256.583     605.619
  O      126.161     255.601     606.634
  C      127.178     257.566     605.650
  O      127.278     258.183     606.948
  C      128.537     256.919     605.396
  O      128.713     256.641     604.021
  C      129.475     257.977     605.958
  O      129.689     259.028     605.000
  C      128.676     258.505     607.158
  N      132.761     257.455     610.027
  C      132.643     257.873     608.752
  N      131.513     258.094     608.044
  C      130.428     257.813     608.787
  C      130.394     257.348     610.089
  C      131.635     257.188     610.733
  N      131.766     256.822     612.054
  N      129.087     257.148     610.497
  C      128.351     257.477     609.455
  N      129.115     257.950     608.422
  O      124.908     253.805     608.061
  O      123.667     255.390     606.502
  H      128.818     259.264     604.632
  H      123.031     255.228     607.225
  H      133.574     258.065     608.231
  H      127.273     257.412     609.405
  H      128.738     259.597     607.243
  H      130.457     257.573     606.223
  H      128.629     256.004     605.992
  H      126.983     258.354     604.914
  H      125.071     257.119     605.796
  H      132.689     256.879     612.454
  H      130.957     256.917     612.662
  H      125.955     256.092     604.642
  P      128.879     255.126     603.530
  C      131.322     254.839     604.260
  O      130.426     254.922     603.170
  O      127.913     254.673     602.486
  O      128.718     254.275     604.878
  H      128.309     253.413     604.671
  H      131.516     255.843     604.649
  H      132.263     254.406     603.912
  H      130.913     254.209     605.053
  H      124.428     253.109     603.581
  H      124.462     254.814     603.961
  H      123.213     253.795     604.633

 3  4  5  6  7  8  9  10  11  12  22  25  29  30  31  32 0
 6-311+G(2d,p)
 ****
 33  36  37 0
 6-311+G(2d,p)
 ****
 1  2  13  14  15  16  17  18  19  20  21  23  24  26 0
 3-21G
 ****
 27  28  34  35  38  39  40  41  42  43  44  45  46  47  48 0
 3-21G
 ****


