%nproc=1
%NoSave
%Mem=1900MB
#P OB98/GEN NMR

erre ene a

0 1
  C     -156.313    -499.823     325.374
  O     -155.205    -500.658     325.049
  P     -154.395    -500.362     323.699
  C     -152.646    -502.259     324.307
  O     -153.452    -501.604     323.350
  C     -151.718    -503.257     323.593
  O     -152.493    -504.319     322.992
  C     -150.892    -502.616     322.478
  O     -149.688    -502.054     322.970
  C     -150.675    -503.791     321.542
  O     -149.636    -504.650     322.051
  C     -152.048    -504.494     321.618
  N     -153.117    -504.030     320.710
  C     -153.266    -504.613     319.454
  O     -152.551    -505.515     319.019
  N     -154.294    -504.135     318.682
  C     -155.276    -503.276     319.084
  O     -156.205    -502.929     318.373
  C     -155.160    -502.805     320.472
  C     -154.103    -503.181     321.200
  O     -153.370    -499.210     324.113
  O     -155.254    -499.962     322.543
  H     -149.918    -504.951     322.932
  H     -153.570    -498.386     323.629
  H     -154.369    -504.492     317.741
  H     -155.944    -502.157     320.851
  H     -154.013    -502.838     322.227
  H     -151.937    -505.573     321.444
  H     -150.335    -503.455     320.566
  H     -151.488    -501.870     321.952
  H     -151.054    -503.706     324.344
  H     -153.266    -502.781     325.041
  H     -152.059    -501.518     324.858
  P     -149.643    -500.500     323.357
  C     -148.102    -501.067     325.332
  O     -148.262    -500.298     324.159
  O     -150.861    -499.951     324.027
  O     -149.340    -499.774     321.961
  H     -150.179    -499.460     321.546
  H     -147.076    -500.959     325.686
  H     -148.296    -502.124     325.125
  H     -148.783    -500.706     326.109
  H     -156.745    -500.147     326.298
  H     -157.046    -499.884     324.597
  H     -155.980    -498.811     325.471

 3  4  5  6  7  8  9  10  11  12  13  23  28  29  30  31  32 0
 6-311+G(2d,p)
 ****
 33  34 0
 6-311+G(2d,p)
 ****
 1  2  14  15  16  17  18  19  20  21  22  24  25  26  27 0
 3-21G
 ****
 35  36  37  38  39  40  41  42  43  44  45 0
 3-21G
 ****


