%nproc=1
%NoSave
%Mem=1900MB
#P OB98/GEN NMR

erre ene a

0 1
  C     1391.334     138.284     -43.228
  O     1390.418     137.210     -43.106
  P     1390.568     136.252     -41.837
  C     1388.284     135.288     -42.647
  O     1389.527     135.038     -42.037
  C     1387.405     134.039     -42.576
  O     1387.664     133.325     -41.351
  C     1385.908     134.334     -42.591
  O     1385.434     134.615     -43.887
  C     1385.335     133.037     -42.004
  O     1385.205     132.027     -43.020
  C     1386.427     132.648     -40.976
  N     1386.031     132.960     -39.598
  C     1385.376     131.928     -38.925
  O     1385.106     130.839     -39.440
  N     1385.003     132.222     -37.636
  C     1385.176     133.422     -36.991
  O     1384.757     133.621     -35.860
  C     1385.859     134.469     -37.780
  C     1386.240     134.181     -39.022
  O     1389.924     137.098     -40.618
  O     1391.973     135.827     -41.529
  H     1384.365     132.231     -43.507
  H     1390.429     136.930     -39.811
  H     1384.555     131.482     -37.107
  H     1386.002     135.424     -37.295
  H     1386.734     134.950     -39.633
  H     1386.639     131.572     -41.050
  H     1384.348     133.186     -41.570
  H     1385.696     135.163     -41.903
  H     1387.671     133.374     -43.408
  H     1388.443     135.570     -43.687
  H     1387.787     136.135     -42.143
  P     1384.273     135.701     -44.035
  C     1384.348     135.298     -46.626
  O     1383.575     135.393     -45.442
  O     1385.152     137.035     -44.292
  O     1383.377     135.775     -42.838
  H     1385.960     136.842     -44.781
  H     1385.322     134.859     -46.429
  H     1384.473     136.305     -47.043
  H     1383.815     134.681     -47.345
  H     1391.118     138.838     -44.117
  H     1392.331     137.898     -43.282
  H     1391.246     138.927     -42.377

 3  4  5  6  7  8  9  10  11  12  13  23  28  29  30  31  32 0
 6-311+G(2d,p)
 ****
 33  34 0
 6-311+G(2d,p)
 ****
 1  2  14  15  16  17  18  19  20  21  22  24  25  26 0
 3-21G
 ****
 27  35  36  37  38  39  40  41  42  43  44  45 0
 3-21G
 ****


