%nproc=1
%NoSave
%Mem=1900MB
#P OB98/GEN NMR

erre ene a

0 1
  C      -69.690    -276.919    -163.601
  O      -69.530    -275.583    -164.037
  H      -70.089    -277.513    -164.426
  H      -70.390    -276.958    -162.763
  H      -68.724    -277.337    -163.299
  P      -68.911    -274.553    -162.974
  C      -66.436    -275.067    -163.616
  O      -67.486    -274.111    -163.567
  C      -65.812    -275.095    -165.018
  O      -66.795    -275.630    -165.954
  C      -65.406    -273.706    -165.538
  O      -64.280    -273.862    -166.420
  C      -66.627    -273.310    -166.351
  O      -66.320    -272.245    -167.218
  C      -66.948    -274.651    -167.002
  N      -69.630    -275.155    -171.311
  C      -68.304    -275.226    -171.061
  N      -67.665    -275.091    -169.878
  C      -68.550    -274.882    -168.887
  C      -69.927    -274.781    -168.990
  C      -70.470    -274.920    -170.277
  N      -71.818    -274.824    -170.544
  N      -70.490    -274.534    -167.748
  C      -69.471    -274.497    -166.915
  N      -68.281    -274.702    -167.559
  O      -68.532    -275.492    -161.734
  O      -69.801    -273.427    -162.573
  H      -66.154    -271.420    -166.718
  H      -69.271    -275.516    -161.097
  H      -67.669    -275.419    -171.921
  H      -69.530    -274.315    -165.850
  H      -66.244    -274.904    -167.805
  H      -67.442    -272.980    -165.701
  H      -65.154    -273.002    -164.742
  H      -64.962    -275.788    -165.019
  H      -66.847    -276.050    -163.371
  H      -65.670    -274.802    -162.883
  H      -72.121    -274.909    -171.501
  H      -72.456    -274.616    -169.790
  P      -62.797    -273.647    -165.841
  C      -62.173    -275.407    -164.020
  O      -62.159    -275.049    -165.393
  O      -63.092    -272.941    -164.430
  O      -61.903    -272.781    -166.670
  H      -62.493    -272.178    -164.312
  H      -61.712    -276.364    -163.896
  H      -63.184    -275.451    -163.673
  H      -61.634    -274.676    -163.455

 6  7  8  9  10  11  12  13  14  15  25  28  32  33  34  35 0
 6-311+G(2d,p)
 ****
 36  37  40 0
 6-311+G(2d,p)
 ****
 1  2  3  4  5  16  17  18  19  20  21  22  23  24 0
 3-21G
 ****
 26  27  29  30  31  38  39 41  42  43  44  45  46  47  48 0
 3-21G
 ****


