%nproc=1
%NoSave
%Mem=1900MB
#P OB98/GEN NMR

erre ene a

0 1
  C      142.123     828.356    1082.811
  O      142.736     827.191    1083.352
  H      141.114     828.088    1082.463
  H      142.699     828.727    1081.966
  H      142.025     829.122    1083.585
  P      144.148     827.330    1084.078
  C      145.500     827.317    1081.873
  O      145.238     826.660    1083.109
  C      146.407     826.457    1081.003
  O      147.702     826.266    1081.655
  C      145.875     825.041    1080.750
  O      144.835     825.051    1079.775
  C      147.132     824.320    1080.326
  O      147.436     824.576    1078.939
  C      148.194     824.966    1081.249
  N      148.516     824.140    1082.421
  C      149.774     823.508    1082.409
  O      150.549     823.586    1081.453
  N      150.071     822.742    1083.496
  C      149.207     822.475    1084.544
  O      149.486     821.710    1085.445
  C      147.901     823.140    1084.482
  C      147.622     823.946    1083.451
  O      144.204     826.875    1085.495
  O      144.480     828.898    1083.950
  H      146.580     824.539    1078.467
  H      144.343     829.336    1084.826
  H      150.952     822.273    1083.510
  H      147.199     822.962    1085.291
  H      146.655     824.430    1083.396
  H      149.122     825.144    1080.696
  H      147.054     823.234    1080.448
  H      145.501     824.599    1081.689
  H      146.588     826.982    1080.030
  H      146.002     828.275    1082.078
  H      144.548     827.519    1081.363
  P      143.305     824.973    1080.236
  C      143.083     822.528    1080.959
  O      142.798     823.481    1079.960
  O      142.416     826.071    1079.719
  O      143.381     825.045    1081.845
  H      142.897     825.828    1082.155
  H      142.697     821.575    1080.663
  H      142.626     822.828    1081.879
  H      144.142     822.458    1081.093

 6  7  8  9  10  11  12  13  14  15  16  26  31  32  33  34  35 0
 6-311+G(2d,p)
 ****
 36  37 0
 6-311+G(2d,p)
 ****
 1  2  3  4  5  17  18  19  20  21  22  23  24  25 0
 3-21G
 ****
 27  28  29  30  38  39  40  41  42  43  44  45 0
 3-21G
 ****


