%nproc=1
%NoSave
%Mem=1900MB
#P OB98/GEN NMR

erre ene a

0 1
  C     -490.650     274.468     307.669
  O     -489.584     274.736     306.778
  H     -491.546     274.241     307.082
  H     -490.857     275.333     308.301
  H     -490.412     273.602     308.293
  P     -488.229     275.344     307.385
  C     -487.088     273.386     306.150
  O     -487.050     274.777     306.454
  C     -485.873     272.970     305.319
  O     -484.661     273.481     305.917
  C     -485.667     271.462     305.242
  O     -486.650     270.788     304.474
  C     -484.203     271.351     304.850
  O     -483.983     271.428     303.442
  C     -483.589     272.592     305.540
  N     -482.757     272.231     306.684
  C     -481.438     271.907     306.391
  O     -480.972     271.898     305.252
  N     -480.660     271.547     307.463
  C     -481.087     271.433     308.755
  O     -480.351     271.066     309.668
  C     -482.500     271.758     308.998
  C     -483.262     272.136     307.968
  O     -488.012     275.114     308.850
  O     -488.297     276.889     306.983
  H     -484.753     271.891     303.057
  H     -487.659     277.427     307.517
  H     -479.699     271.322     307.275
  H     -482.869     271.673     310.010
  H     -484.312     272.381     308.119
  H     -482.962     273.148     304.832
  H     -483.768     270.406     305.185
  H     -485.746     271.056     306.258
  H     -485.967     273.409     304.321
  H     -487.998     273.196     305.572
  H     -487.134     272.808     307.080
  P     -487.373     269.450     304.969
  C     -489.008     269.549     302.941
  O     -488.083     268.769     303.693
  O     -488.125     269.527     306.255
  O     -486.100     268.482     305.211
  H     -486.318     267.898     305.961
  H     -489.393     268.964     302.132
  H     -488.512     270.414     302.552
  H     -489.814     269.855     303.574

 6  7  8  9  10  11  12  13  14  15  16  26  31  32  33  34  35 0
 6-311+G(2d,p)
 ****
 36  37 0
 6-311+G(2d,p)
 ****
 1  2  3  4  5  17  18  19  20  21  22  23  24  25 0
 3-21G
 ****
 27  28  29  30  38  39  40  41  42  43  44  45 0
 3-21G
 ****


