%nproc=1
%NoSave
%Mem=1900MB
#P OB98/GEN NMR

erre ene a

0 1
  C      605.634     151.053      53.063
  O      605.248     152.370      52.728
  H      604.974     150.349      52.550
  H      605.529     150.908      54.142
  H      606.666     150.856      52.758
  P      606.295     153.543      53.037
  C      606.526     153.649      50.451
  O      607.182     153.729      51.709
  C      607.101     154.682      49.481
  O      606.788     156.014      49.983
  C      608.632     154.595      49.304
  O      608.953     154.890      47.938
  C      609.134     155.729      50.171
  O      610.423     156.187      49.775
  C      608.023     156.760      49.968
  N      610.316     161.031      51.271
  C      610.347     160.316      50.088
  N      611.166     160.777      49.120
  N      609.646     159.238      49.878
  C      608.850     158.896      50.921
  C      608.729     159.515      52.144
  C      609.529     160.699      52.376
  O      609.557     161.358      53.411
  N      607.866     158.825      52.959
  C      607.485     157.781      52.236
  N      608.057     157.782      50.993
  O      607.305     152.849      54.068
  O      605.710     154.795      53.591
  H      610.685     156.915      50.374
  H      607.035     153.055      54.984
  H      610.895     161.844      51.391
  H      606.821     156.999      52.568
  H      608.102     157.274      49.000
  H      609.184     155.409      51.221
  H      611.723     161.618      49.196
  H      609.053     153.622      49.580
  H      611.172     160.288      48.231
  H      606.594     154.576      48.515
  H      605.458     153.848      50.593
  H      606.645     152.637      50.048
  P      609.902     153.872      47.150
  C      607.846     153.079      45.767
  O      608.993     152.706      46.519
  O      610.687     153.123      48.328
  O      610.844     154.532      46.200
  H      611.595     152.911      48.037
  H      607.348     152.199      45.416
  H      608.146     153.677      44.932
  H      607.180     153.642      46.387

 6  7  8  9  10  11  12  13  14  15  26  29  33  34 0
 6-311+G(2d,p)
 ****
 36  38  39  40  41 0
 6-311+G(2d,p)
 ****
 1  2  3  4  5  16  17  18  19  20  21  22  23  24  25 0
 3-21G
 ****
 27  28  30  31  32  35  37  42  43  44  45  46  47 0
 3-21G
 ****
 48  49 0
 3-21G
 ****


