%nproc=1
%NoSave
%Mem=1900MB
#P OB98/GEN NMR

erre ene a

0 1
  C     1921.862    -164.799      -7.234
  O     1921.727    -163.827      -6.225
  H     1922.900    -164.790      -7.571
  H     1921.222    -164.550      -8.091
  H     1921.618    -165.777      -6.852
  P     1920.260    -163.591      -5.621
  C     1920.911    -164.849      -3.478
  O     1920.051    -164.831      -4.603
  C     1920.748    -166.174      -2.713
  O     1919.315    -166.458      -2.581
  C     1921.377    -167.384      -3.393
  O     1921.899    -168.289      -2.384
  C     1920.232    -168.075      -4.073
  O     1920.481    -169.437      -4.343
  C     1919.098    -167.754      -3.121
  N     1915.052    -170.784      -3.880
  C     1916.136    -170.893      -3.064
  N     1917.138    -170.034      -2.903
  C     1916.949    -168.930      -3.653
  C     1915.928    -168.674      -4.536
  C     1914.926    -169.672      -4.676
  N     1913.883    -169.604      -5.536
  N     1916.115    -167.448      -5.198
  C     1917.256    -167.001      -4.685
  N     1917.798    -167.860      -3.780
  O     1919.166    -163.424      -6.632
  O     1920.476    -162.362      -4.627
  H     1921.373    -169.499      -4.725
  H     1921.265    -162.485      -4.091
  H     1916.162    -171.791      -2.455
  H     1917.697    -166.033      -4.953
  H     1919.066    -168.495      -2.269
  H     1920.051    -167.572      -5.063
  H     1922.198    -167.103      -4.085
  H     1921.132    -166.036      -1.681
  H     1920.740    -164.029      -2.813
  H     1913.214    -170.367      -5.540
  H     1913.765    -168.781      -6.121
  H     1921.966    -164.791      -3.843
  P     1923.487    -168.604      -2.371
  C     1924.431    -167.340      -0.312
  O     1924.276    -167.326      -1.741
  O     1924.060    -169.086      -3.647
  O     1923.644    -169.709      -1.191
  H     1924.208    -170.401      -1.533
  H     1924.959    -166.462      -0.002
  H     1924.983    -168.209      -0.022
  H     1923.467    -167.359       0.151

 6  7  8  9  10  11  12  13  14  15  25  28  32  33  34  35 0
 6-311+G(2d,p)
 ****
 36  39  40 0
 6-311+G(2d,p)
 ****
 1  2  3  4  5  16  17  18  19  20  21  22  23  24 0
 3-21G
 ****
 26  27  29  30  31  37  38  41  42  43  44  45  46  47 0
 3-21G
 ****
 48 0
 3-21G
 ****


