%nproc=1
%NoSave
%Mem=1900MB
#P OB98/GEN NMR

erre ene a

0 1
  C     -489.516     339.481      20.608
  O     -489.070     338.229      21.088
  H     -489.264     339.562      19.550
  H     -489.017     340.290      21.150
  H     -490.601     339.577      20.716
  P     -489.478     337.780      22.571
  C     -491.760     336.751      21.939
  O     -490.445     336.510      22.419
  C     -492.763     335.798      22.601
  O     -494.111     336.169      22.168
  C     -492.563     334.314      22.235
  O     -493.010     333.541      23.360
  C     -493.513     334.178      21.059
  O     -493.734     332.840      20.691
  C     -494.704     334.980      21.603
  N     -495.725     335.327      20.624
  C     -496.970     335.720      21.095
  O     -497.272     335.801      22.286
  N     -497.902     336.028      20.136
  C     -497.706     335.999      18.788
  O     -498.565     336.318      17.976
  C     -496.368     335.569      18.347
  C     -495.456     335.262      19.266
  O     -489.989     338.863      23.461
  O     -488.133     337.129      23.150
  H     -487.693     337.765      23.746
  H     -492.941     332.499      20.230
  H     -498.808     336.321      20.463
  H     -496.184     335.521      17.282
  H     -494.455     334.953      18.972
  H     -495.175     334.431      22.428
  H     -493.086     334.666      20.176
  H     -491.524     334.061      22.011
  H     -492.727     335.946      23.688
  H     -491.760     336.590      20.853
  H     -492.033     337.790      22.144
  P     -492.047     332.584      24.215
  C     -490.638     334.137      25.727
  O     -491.771     333.288      25.629
  O     -490.803     332.179      23.495
  O     -492.941     331.309      24.587
  H     -492.364     330.533      24.723
  H     -490.576     334.536      26.718
  H     -490.731     334.939      25.025
  H     -489.752     333.576      25.512

 6  7  8  9  10  11  12  13  14  15  16  27  31  32  33  34  35 0
 6-311+G(2d,p)
 ****
 36  37 0
 6-311+G(2d,p)
 ****
 1  2  3  4  5  17  18  19  20  21  22  23  24  25 0
 3-21G
 ****
 26  28  29  30  38  39  40  41  42  43  44  45 0
 3-21G
 ****


