%nproc=1
%NoSave
%Mem=1900MB
#P OB98/GEN NMR

erre ene a

0 1
  C      438.448     247.789     243.692
  O      437.945     246.474     243.826
  H      439.515     247.762     243.453
  H      437.918     248.289     242.877
  H      438.289     248.351     244.617
  P      438.621     245.554     244.954
  C      439.850     243.272     244.711
  O      439.588     244.553     244.154
  C      440.362     242.341     243.616
  O      439.413     242.287     242.526
  C      441.679     242.790     242.995
  O      442.803     242.408     243.771
  C      441.639     242.039     241.674
  O      441.968     240.655     241.890
  C      440.160     242.181     241.284
  N      440.439     244.162     236.571
  C      440.742     242.937     237.053
  N      440.620     242.482     238.318
  C      440.116     243.434     239.118
  C      439.753     244.726     238.768
  C      439.936     245.084     237.423
  N      439.661     246.341     236.934
  N      439.296     245.417     239.872
  C      439.363     244.553     240.864
  N      439.882     243.351     240.467
  O      437.429     244.595     245.428
  O      439.276     246.276     246.083
  H      441.309     240.301     242.518
  H      437.665     244.148     246.263
  H      441.139     242.231     236.331
  H      439.061     244.752     241.886
  H      439.784     241.308     240.738
  H      442.353     242.430     240.945
  H      441.683     243.869     242.795
  H      440.446     241.329     244.036
  H      438.922     242.870     245.130
  H      439.964     246.549     235.995
  H      439.426     247.076     237.585
  H      440.593     243.364     245.506
  P      444.228     243.029     243.366
  C      446.158     242.339     241.768
  O      444.872     242.021     242.295
  O      445.109     242.786     244.678
  O      444.188     244.467     242.967
  H      445.768     243.496     244.791
  H      446.455     241.582     241.072
  H      446.868     242.388     242.567
  H      446.115     243.285     241.270

 6  7  8  9  10  11  12  13  14  15  25  28  32  33  34  35 0
 6-311+G(2d,p)
 ****
 36  39  40 0
 6-311+G(2d,p)
 ****
 1  2  3  4  5  16  17  18  19  20  21  22  23  24 0
 3-21G
 ****
 26  27  29  30  31  37  38  41  42  43  44  45  46  47 0
 3-21G
 ****
 48 0
 3-21G
 ****


