%nproc=1
%NoSave
%Mem=1900MB
#P OB98/GEN NMR

erre ene a

0 1
  C      751.190    -395.873    -259.430
  O      750.096    -395.042    -259.067
  P      750.039    -393.553    -259.655
  C      748.147    -393.841    -261.485
  O      749.495    -393.579    -261.156
  C      747.978    -393.783    -263.007
  O      748.880    -394.716    -263.648
  C      746.569    -394.133    -263.477
  O      745.714    -392.997    -263.473
  C      746.823    -394.690    -264.862
  O      747.049    -393.624    -265.800
  C      748.126    -395.497    -264.626
  N      748.002    -396.883    -264.133
  C      748.701    -397.906    -264.764
  O      749.428    -397.747    -265.746
  N      748.552    -399.156    -264.229
  C      747.936    -399.464    -263.054
  O      747.882    -400.601    -262.591
  C      747.343    -398.326    -262.341
  C      747.394    -397.115    -262.906
  O      751.573    -393.143    -259.810
  O      749.287    -392.580    -258.800
  H      747.089    -394.021    -266.684
  H      751.796    -392.408    -259.215
  H      748.990    -399.924    -264.713
  H      746.886    -398.513    -261.382
  H      746.958    -396.266    -262.391
  H      748.727    -395.536    -265.542
  H      745.959    -395.239    -265.229
  H      746.154    -394.931    -262.855
  H      748.245    -392.777    -263.351
  H      747.485    -393.115    -261.009
  H      747.863    -394.831    -261.108
  P      744.764    -392.727    -262.215
  C      746.199    -390.661    -261.688
  O      745.650    -391.867    -261.185
  O      744.082    -393.917    -261.633
  O      743.723    -391.637    -262.765
  H      742.893    -392.073    -263.063
  H      746.637    -390.102    -260.858
  H      745.415    -390.053    -262.154
  H      746.984    -390.885    -262.415
  H      751.084    -396.828    -258.960
  H      752.105    -395.418    -259.111
  H      751.206    -395.998    -260.493

 3  4  5  6  7  8  9  10  11  12  13  23  28  29  30  31  32 0
 6-311+G(2d,p)
 ****
 33  34 0
 6-311+G(2d,p)
 ****
 1  2  14  15  16  17  18  19  20  21  22  24  25  26  27 0
 3-21G
 ****
 35  36  37  38  39  40  41  42  43  44  45 0
 3-21G
 ****


