%nproc=1
%NoSave
%Mem=1900MB
#P OB98/GEN NMR

erre ene a

0 1
  C     -208.255     -19.764      13.662
  O     -209.461     -19.464      14.337
  H     -207.856     -18.841      13.235
  H     -208.439     -20.478      12.854
  H     -207.526     -20.174      14.365
  P     -210.233     -20.699      15.009
  C     -210.482     -19.930      17.456
  O     -211.106     -20.031      16.182
  C     -211.516     -19.602      18.534
  O     -212.310     -18.476      18.082
  C     -212.475     -20.758      18.829
  O     -212.753     -20.791      20.227
  C     -213.733     -20.381      18.068
  O     -214.904     -20.970      18.627
  C     -213.696     -18.856      18.142
  N     -218.091     -16.606      16.861
  C     -217.583     -16.983      18.054
  N     -216.391     -17.565      18.308
  C     -215.679     -17.702      17.175
  C     -216.065     -17.367      15.889
  C     -217.343     -16.798      15.749
  N     -217.878     -16.433      14.536
  N     -215.076     -17.704      14.985
  C     -214.105     -18.220      15.715
  N     -214.432     -18.255      17.043
  O     -209.378     -21.848      15.425
  O     -211.340     -21.032      13.903
  H     -214.760     -21.936      18.696
  H     -211.755     -20.219      13.558
  H     -218.218     -16.803      18.917
  H     -213.161     -18.592      15.331
  H     -214.126     -18.469      19.073
  H     -213.649     -20.721      17.027
  H     -212.079     -21.723      18.508
  H     -210.991     -19.278      19.439
  H     -209.713     -19.151      17.439
  H     -218.796     -16.017      14.527
  H     -217.328     -16.552      13.697
  H     -210.001     -20.889      17.672
  P     -211.760     -21.605      21.185
  C     -210.960     -19.718      22.754
  O     -211.745     -20.899      22.627
  O     -210.420     -21.927      20.615
  O     -212.587     -22.949      21.477
  H     -211.967     -23.702      21.510
  H     -211.033     -19.347      23.755
  H     -211.319     -18.976      22.072
  H     -209.938     -19.943      22.531

 6  7  8  9  10  11  12  13  14  15  25  28  32  33  34  35 0
 6-311+G(2d,p)
 ****
 36  39  40 0
 6-311+G(2d,p)
 ****
 1  2  3  4  5  16  17  18  19  20  21  22  23  24 0
 3-21G
 ****
 26  27  29  30  31  37  38  41  42  43  44  45  46  47 0
 3-21G
 ****
 48 0
 3-21G
 ****


