%nproc=1
%NoSave
%Mem=1900MB
#P OB98/GEN NMR

erre ene a

0 1
  C      515.208     -38.184      61.141
  O      514.077     -37.392      61.457
  H      515.209     -38.434      60.078
  H      516.113     -37.611      61.369
  H      515.209     -39.099      61.742
  P      512.637     -38.052      61.205
  C      512.383     -36.971      58.851
  O      512.485     -38.170      59.609
  C      512.562     -37.283      57.370
  O      513.920     -37.701      57.112
  C      511.679     -38.410      56.853
  O      510.362     -37.972      56.563
  C      512.422     -38.795      55.582
  O      512.149     -37.833      54.551
  C      513.886     -38.689      56.037
  N      517.403     -42.321      55.235
  C      517.090     -41.199      54.544
  N      516.138     -40.285      54.822
  C      515.469     -40.621      55.944
  C      515.671     -41.732      56.741
  C      516.701     -42.610      56.352
  N      517.012     -43.763      57.043
  N      514.766     -41.758      57.790
  C      514.054     -40.655      57.637
  N      514.435     -39.942      56.528
  O      511.617     -36.877      61.577
  O      512.360     -39.314      61.954
  H      512.608     -38.143      53.747
  H      510.736     -37.249      61.775
  H      517.684     -41.013      53.653
  H      513.262     -40.334      58.296
  H      514.550     -38.330      55.239
  H      512.134     -39.775      55.197
  H      511.674     -39.272      57.540
  H      512.382     -36.357      56.802
  H      513.166     -36.277      59.172
  H      517.634     -44.410      56.579
  H      516.394     -44.063      57.787
  H      511.403     -36.515      59.030
  P      509.171     -39.029      56.776
  C      509.524     -39.890      54.343
  O      509.437     -40.215      55.728
  O      507.898     -38.275      56.162
  O      508.953     -39.448      58.196
  H      507.074     -38.583      56.576
  H      509.703     -40.781      53.778
  H      510.329     -39.202      54.188
  H      508.606     -39.443      54.023

 6  7  8  9  10  11  12  13  14  15  25  28  32  33  34  35 0
 6-311+G(2d,p)
 ****
 36  39  40 0
 6-311+G(2d,p)
 ****
 1  2  3  4  5  16  17  18  19  20  21  22  23  24 0
 3-21G
 ****
 26  27  29  30  31  37  38  41  42  43  44  45  46  47 0
 3-21G
 ****
 48 0
 3-21G
 ****


