%nproc=1
%NoSave
%Mem=1900MB
#P OB98/GEN NMR

erre ene a

0 1
  C      304.652    -341.382    -162.826
  O      304.156    -342.341    -163.754
  P      305.149    -343.525    -164.194
  C      307.573    -343.439    -165.112
  O      306.292    -342.823    -165.076
  C      308.613    -342.474    -165.667
  O      308.848    -341.416    -164.722
  C      309.978    -343.099    -165.923
  O      310.019    -343.798    -167.157
  C      310.862    -341.861    -165.965
  O      310.785    -341.254    -167.269
  C      310.207    -340.952    -164.911
  N      313.449    -338.501    -161.889
  C      312.975    -338.163    -163.143
  N      313.412    -336.989    -163.653
  N      312.157    -338.905    -163.838
  C      311.775    -340.029    -163.187
  C      312.169    -340.472    -161.943
  C      313.122    -339.665    -161.209
  O      313.624    -339.950    -160.122
  N      311.555    -341.654    -161.614
  C      310.759    -341.905    -162.637
  N      310.878    -340.962    -163.628
  O      304.289    -344.332    -165.277
  O      305.614    -344.407    -163.086
  H      311.117    -341.914    -167.911
  H      304.596    -345.256    -165.324
  H      314.066    -337.883    -161.395
  H      310.089    -342.750    -162.697
  H      310.145    -339.918    -165.264
  H      311.919    -342.084    -165.778
  H      313.938    -336.315    -163.116
  H      310.283    -343.739    -165.087
  H      313.050    -336.705    -164.554
  H      308.216    -342.032    -166.587
  H      307.527    -344.323    -165.758
  H      307.840    -343.762    -164.103
  P      311.214    -344.858    -167.344
  C      313.704    -344.222    -166.967
  O      312.509    -343.978    -167.683
  O      310.855    -345.574    -168.730
  O      311.351    -345.832    -166.223
  H      311.242    -346.471    -168.756
  H      313.832    -345.289    -166.753
  H      313.690    -343.665    -166.031
  H      314.549    -343.883    -167.570
  H      303.892    -340.656    -162.623
  H      305.509    -340.894    -163.241
  H      304.927    -341.875    -161.917

 3  4  5  6  7  8  9  10  11  12  23  26  30  31  33  0
 6-311+G(2d,p)
 ****
 35  36  37  38 0
 6-311+G(2d,p)
 ****
 1  2  13  14  15  16  17  18  19  20  21  22  24  25  27  28  29 0
 3-21G
 ****
 32  34  39  40  41  42  43  44  45  46  47  48  49 0
 3-21G
 ****


