%nproc=1
%NoSave
%Mem=1900MB
#P OB98/GEN NMR

erre ene a

0 1
  C     -510.382     348.023    -909.692
  O     -510.396     347.230    -908.514
  P     -511.702     347.187    -907.581
  C     -510.827     344.934    -906.651
  O     -511.290     346.251    -906.330
  C     -510.260     344.250    -905.406
  O     -508.890     344.652    -905.185
  C     -511.007     344.570    -904.111
  O     -512.220     343.826    -904.034
  C     -509.960     344.174    -903.074
  O     -509.980     342.757    -902.823
  C     -508.630     344.599    -903.757
  N     -508.127     345.857    -903.257
  C     -507.208     345.771    -902.198
  O     -506.903     344.670    -901.736
  N     -506.688     346.926    -901.672
  C     -507.068     348.060    -902.120
  N     -506.539     349.195    -901.549
  C     -508.068     348.219    -903.214
  C     -508.544     347.094    -903.731
  O     -512.968     346.817    -908.266
  O     -511.729     348.655    -906.922
  H     -510.886     342.564    -902.490
  H     -512.035     349.320    -907.585
  H     -508.362     349.196    -903.573
  H     -509.277     347.091    -904.522
  H     -507.864     343.828    -903.624
  H     -510.131     344.678    -902.115
  H     -511.192     345.631    -904.060
  H     -510.261     343.164    -905.584
  H     -505.892     349.038    -900.793
  H     -510.046     345.013    -907.418
  H     -506.781     350.122    -901.810
  H     -511.662     344.351    -907.071
  P     -513.601     344.582    -903.802
  C     -515.045     343.181    -905.401
  O     -514.788     343.526    -904.049
  O     -513.743     345.905    -904.486
  O     -513.634     344.781    -902.193
  H     -513.926     345.697    -902.006
  H     -515.626     342.268    -905.433
  H     -514.118     343.066    -905.959
  H     -515.639     343.991    -905.864
  H     -509.434     347.924    -910.177
  H     -510.545     349.048    -909.434
  H     -511.157     347.694    -910.353

 3  4  5  6  7  8  9  10  11  12  13  23  27  28  29  30  32 0
 6-311+G(2d,p)
 ****
 34  35 0
 6-311+G(2d,p)
 ****
 1  2  14  15  16  17  18  19  20  21  22  24  25  26 0
 3-21G
 ****
 31  33  36  37  38  39  40  41  42  43  44  45  46 0
 3-21G
 ****


