%nproc=1
%NoSave
%Mem=1900MB
#P OB98/GEN NMR

erre ene a

0 1
  C     -104.168     355.749     -42.498
  O     -103.428     354.567     -42.752
  P     -103.338     353.958     -44.233
  C     -104.839     351.886     -43.947
  O     -103.507     352.365     -44.078
  C     -104.845     350.471     -43.360
  O     -104.061     349.609     -44.222
  C     -104.252     350.389     -41.962
  O     -104.976     349.414     -41.208
  C     -102.842     349.873     -42.185
  O     -102.349     349.186     -41.017
  C     -103.031     348.992     -43.422
  N      -98.493     346.659     -43.946
  C      -99.480     346.503     -43.041
  N     -100.648     347.171     -42.948
  C     -100.771     348.055     -43.955
  C      -99.850     348.320     -44.956
  C      -98.655     347.577     -44.929
  N      -97.652     347.728     -45.862
  N     -100.314     349.313     -45.801
  C     -101.500     349.621     -45.328
  N     -101.829     348.878     -44.219
  O     -102.150     354.382     -45.022
  O     -104.709     354.401     -44.931
  H     -101.423     348.927     -41.204
  H     -104.556     354.630     -45.866
  H      -99.310     345.738     -42.286
  H     -102.158     350.374     -45.740
  H     -103.369     347.985     -43.155
  H     -102.169     350.714     -42.384
  H     -104.264     351.352     -41.435
  H     -105.879     350.098     -43.371
  H     -105.301     351.868     -44.939
  H      -96.889     347.067     -45.835
  H      -97.848     348.279     -46.689
  H     -105.410     352.572     -43.309
  P     -105.777     349.972     -39.923
  C     -104.713     348.356     -38.174
  O     -105.851     348.718     -38.918
  O     -107.069     350.618     -40.300
  O     -104.689     350.958     -39.282
  H     -103.779     350.704     -39.536
  H     -104.948     347.468     -37.579
  H     -104.437     349.165     -37.490
  H     -103.872     348.130     -38.837
  H     -104.107     355.992     -41.458
  H     -105.192     355.594     -42.768
  H     -103.764     356.554     -43.076

 3  4  5  6  7  8  9  10  11  12  22  25  29  30  31  32 0
 6-311+G(2d,p)
 ****
 33  36  37 0
 6-311+G(2d,p)
 ****
 1  2  13  14  15  16  17  18  19  20  21  23  24  26 0
 3-21G
 ****
 27  28  34  35  38  39  40  41  42  43  44  45  46  47  48 0
 3-21G
 ****


