%nproc=1
%NoSave
%Mem=1900MB
#P OB98/GEN NMR

erre ene a

0 1
  C     -867.676    -148.814     402.427
  O     -866.345    -148.352     402.508
  H     -867.715    -149.840     402.798
  H     -868.008    -148.805     401.385
  H     -868.348    -148.200     403.034
  P     -866.052    -146.790     402.306
  C     -865.188    -146.975     399.882
  O     -864.859    -146.688     401.234
  C     -863.931    -147.310     399.077
  O     -863.170    -146.090     398.854
  C     -862.995    -148.312     399.772
  O     -862.335    -149.067     398.745
  C     -862.013    -147.392     400.461
  O     -860.835    -148.072     400.840
  C     -861.853    -146.300     399.401
  N     -861.282    -145.067     399.951
  C     -859.899    -144.947     399.898
  O     -859.161    -145.826     399.452
  N     -859.377    -143.797     400.419
  C     -860.084    -142.804     401.029
  O     -859.559    -141.806     401.511
  C     -861.540    -143.003     401.092
  C     -862.067    -144.107     400.557
  O     -865.835    -146.006     403.555
  O     -867.313    -146.257     401.477
  H     -860.309    -148.310     400.045
  H     -867.487    -145.321     401.696
  H     -858.375    -143.687     400.378
  H     -862.131    -142.239     401.580
  H     -863.136    -144.280     400.587
  H     -861.202    -146.639     398.589
  H     -862.452    -146.974     401.377
  H     -863.517    -148.982     400.459
  H     -864.235    -147.676     398.089
  H     -865.674    -146.087     399.457
  H     -865.889    -147.814     399.847
  P     -862.583    -150.641     398.547
  C     -860.245    -151.192     399.490
  O     -861.155    -151.373     398.410
  O     -863.550    -150.973     397.459
  O     -863.123    -151.149     399.966
  H     -863.698    -151.930     399.839
  H     -859.338    -151.722     399.285
  H     -860.682    -151.568     400.391
  H     -860.031    -150.150     399.605

 6  7  8  9  10  11  12  13  14  15  16  26  31  32  33  34  35 0
 6-311+G(2d,p)
 ****
 36  37 0
 6-311+G(2d,p)
 ****
 1  2  3  4  5  17  18  19  20  21  22  23  24  25 0
 3-21G
 ****
 27  28  29  30  38  39  40  41  42  43  44  45 0
 3-21G
 ****


