%nproc=1
%NoSave
%Mem=1900MB
#P OB98/GEN NMR

erre ene a

0 1
  C      -24.590     -42.334      11.140
  O      -23.263     -42.834      11.311
  P      -22.132     -42.175      10.383
  C      -20.998     -42.844       8.148
  O      -22.155     -42.926       8.966
  C      -20.961     -44.001       7.146
  O      -20.915     -45.286       7.793
  C      -22.172     -44.040       6.225
  O      -22.022     -43.092       5.183
  C      -22.141     -45.481       5.734
  O      -21.240     -45.635       4.618
  C      -21.613     -46.245       6.959
  N      -24.795     -50.186       7.134
  C      -24.008     -49.729       6.095
  N      -24.056     -50.438       4.948
  N      -23.240     -48.674       6.176
  C      -23.290     -48.064       7.383
  C      -24.008     -48.437       8.495
  C      -24.856     -49.605       8.392
  O      -25.554     -50.062       9.290
  N      -23.754     -47.606       9.557
  C      -22.985     -46.662       9.046
  N      -22.622     -46.928       7.749
  O      -20.767     -42.666      11.060
  O      -22.209     -40.686      10.319
  H      -21.134     -46.583       4.425
  H      -20.318     -41.911      11.484
  H      -25.374     -50.999       7.014
  H      -22.644     -45.787       9.577
  H      -20.883     -47.010       6.670
  H      -23.122     -45.813       5.383
  H      -24.622     -51.262       4.817
  H      -23.089     -43.858       6.799
  H      -23.480     -50.125       4.176
  H      -20.046     -43.889       6.550
  H      -20.100     -42.865       8.767
  H      -21.000     -41.879       7.629
  P      -23.202     -42.031       4.959
  C      -25.789     -42.162       4.812
  O      -24.558     -42.856       4.761
  O      -22.890     -41.444       3.501
  O      -23.256     -40.941       5.977
  H      -22.996     -40.475       3.511
  H      -26.511     -42.681       4.178
  H      -25.687     -41.131       4.465
  H      -26.157     -42.161       5.841
  H      -25.252     -42.845      11.807
  H      -24.905     -42.497      10.130
  H      -24.607     -41.286      11.354

 3  4  5  6  7  8  9  10  11  12  23  26  30  31 0
 6-311+G(2d,p)
 ****
 33  35  36  37  38 0
 6-311+G(2d,p)
 ****
 1  2  13  14  15  16  17  18  19  20  21  22  24  25 0
 3-21G
 ****
 27  28  29  32  34  39  40  41  42  43  44  45  46  47  48  49 0
 3-21G
 ****


