%nproc=1
%NoSave
%Mem=1900MB
#P OB98/GEN NMR

erre ene a

0 1
  C     -354.572      97.254    -297.352
  O     -355.248      96.419    -296.428
  P     -354.868      96.529    -294.876
  C     -356.288      98.632    -294.276
  O     -354.990      98.078    -294.454
  C     -356.717      98.543    -292.810
  O     -355.660      99.099    -291.969
  C     -358.007      99.303    -292.489
  O     -358.697      98.571    -291.458
  C     -357.486     100.612    -291.919
  O     -358.450     101.308    -291.140
  C     -356.277     100.101    -291.129
  N     -355.340     101.160    -290.770
  C     -355.576     101.864    -289.596
  O     -356.534     101.643    -288.844
  N     -354.717     102.893    -289.320
  C     -353.715     103.333    -290.133
  O     -353.051     104.343    -289.885
  C     -353.507     102.560    -291.366
  C     -354.312     101.525    -291.628
  O     -353.290      96.253    -294.863
  O     -355.612      95.585    -293.986
  H     -359.103     101.686    -291.751
  H     -353.106      95.334    -294.599
  H     -354.873     103.402    -288.464
  H     -352.701     102.875    -292.024
  H     -354.190     100.944    -292.537
  H     -356.609      99.591    -290.214
  H     -357.181     101.268    -292.741
  H     -358.664      99.445    -293.356
  H     -356.819      97.484    -292.546
  H     -357.001      98.083    -294.897
  H     -356.290      99.678    -294.615
  P     -360.293      98.721    -291.375
  C     -360.486      97.148    -293.453
  O     -360.874      98.347    -292.818
  O     -360.443     100.314    -291.292
  O     -360.902      98.004    -290.203
  H     -359.857     100.777    -291.913
  H     -360.318      96.337    -292.739
  H     -359.565      97.322    -294.017
  H     -361.268      96.843    -294.154
  H     -354.936      97.062    -298.339
  H     -353.522      97.052    -297.314
  H     -354.747      98.279    -297.101

 3  4  5  6  7  8  9  10  11  12  13  23  28  29  30  31  32 0
 6-311+G(2d,p)
 ****
 33  34 0
 6-311+G(2d,p)
 ****
 1  2  14  15  16  17  18  19  20  21  22  24  25  26 0
 3-21G
 ****
 27  35  36  37  38  39  40  41  42  43  44  45 0
 3-21G
 ****


