%nproc=1
%NoSave
%Mem=1900MB
#P OB98/GEN NMR

erre ene a

0 1
  C     -158.903     324.153      64.404
  O     -159.534     323.570      65.534
  P     -161.110     323.745      65.799
  C     -162.622     325.740      66.452
  O     -161.312     325.298      66.153
  C     -162.860     327.135      65.868
  O     -162.828     327.044      64.419
  C     -164.208     327.767      66.262
  O     -163.986     329.178      66.388
  C     -165.086     327.468      65.063
  O     -166.192     328.345      64.966
  C     -164.071     327.591      63.921
  N     -164.498     326.899      62.713
  C     -165.522     327.475      61.963
  O     -166.062     328.525      62.324
  N     -165.923     326.852      60.803
  C     -165.409     325.711      60.471
  N     -165.792     325.162      59.286
  C     -164.401     325.010      61.297
  C     -163.981     325.666      62.374
  O     -161.684     322.802      66.799
  O     -161.769     323.646      64.349
  H     -165.858     329.245      64.793
  H     -161.945     322.715      64.070
  H     -164.021     324.046      60.989
  H     -163.227     325.242      63.022
  H     -163.878     328.647      63.696
  H     -165.467     326.444      65.138
  H     -164.595     327.375      67.205
  H     -162.029     327.783      66.172
  H     -166.350     325.751      58.673
  H     -162.728     325.793      67.540
  H     -165.220     324.470      58.819
  H     -163.355     325.023      66.067
  P     -164.895     329.995      67.436
  C     -167.083     331.311      66.966
  O     -166.375     330.095      66.836
  O     -164.350     331.493      67.236
  O     -164.771     329.599      68.874
  H     -164.513     332.002      68.052
  H     -168.068     331.197      66.498
  H     -166.552     332.123      66.466
  H     -167.229     331.558      68.027
  H     -157.859     323.917      64.417
  H     -159.029     325.215      64.434
  H     -159.345     323.766      63.510

 3  4  5  6  7  8  9  10  11  12  13  23  27  28  29  30  32 0
 6-311+G(2d,p)
 ****
 34  35 0
 6-311+G(2d,p)
 ****
 1  2  14  15  16  17  18  19  20  21  22  24  25  26 0
 3-21G
 ****
 31  33  36  37  38  39  40  41  42  43  44  45  46 0
 3-21G
 ****


