%nproc=1
%NoSave
%Mem=1900MB
#P OB98/GEN NMR

erre ene a

0 1
  C      220.545    -442.491    -422.277
  O      221.212    -443.612    -421.720
  H      220.318    -442.706    -423.326
  H      221.193    -441.613    -422.241
  H      219.611    -442.292    -421.746
  P      221.575    -443.594    -420.161
  C      219.176    -444.080    -419.367
  O      220.240    -443.142    -419.380
  C      218.329    -443.906    -418.108
  O      217.687    -442.606    -418.150
  C      217.229    -444.968    -417.957
  O      217.106    -445.302    -416.572
  C      215.976    -444.248    -418.422
  O      214.794    -444.785    -417.835
  C      216.270    -442.807    -417.996
  N      211.834    -440.430    -418.470
  C      212.294    -441.285    -417.480
  N      211.427    -441.570    -416.482
  N      213.488    -441.812    -417.479
  C      214.240    -441.431    -418.532
  C      213.910    -440.595    -419.569
  C      212.582    -440.034    -419.573
  O      212.123    -439.277    -420.423
  N      214.951    -440.476    -420.465
  C      215.904    -441.234    -419.966
  N      215.525    -441.846    -418.797
  O      222.798    -442.819    -419.793
  O      221.716    -445.143    -419.782
  H      214.596    -445.627    -418.302
  H      222.651    -445.406    -419.749
  H      210.905    -440.059    -418.425
  H      216.878    -441.387    -420.402
  H      216.003    -442.624    -416.951
  H      215.886    -444.325    -419.514
  H      210.502    -441.182    -416.409
  H      217.425    -445.871    -418.541
  H      211.748    -442.174    -415.732
  H      218.993    -443.907    -417.239
  H      219.605    -445.090    -419.390
  H      218.558    -443.937    -420.262
  P      218.097    -446.390    -415.953
  C      219.332    -445.006    -414.166
  O      219.417    -445.637    -415.440
  O      218.344    -447.599    -416.795
  O      217.371    -446.792    -414.577
  H      217.588    -447.718    -414.361
  H      220.268    -444.541    -413.935
  H      219.104    -445.738    -413.420
  H      218.561    -444.265    -414.186

 6  7  8  9  10  11  12  13  14  15  26  29  33  34 0
 6-311+G(2d,p)
 ****
 36  38  39  40  41 0
 6-311+G(2d,p)
 ****
 1  2  3  4  5  16  17  18  19  20  21  22  23  24  25 0
 3-21G
 ****
 27  28  30  31  32  35  37  42  43  44  45  46  47 0
 3-21G
 ****
 48  49 0
 3-21G
 ****


