%nproc=1
%NoSave
%Mem=1900MB
#P OB98/GEN NMR

erre ene a

0 1
  C     -601.872    -522.316       8.558
  O     -600.944    -523.035       7.768
  H     -602.884    -522.518       8.187
  H     -601.682    -521.246       8.474
  H     -601.826    -522.628       9.601
  P     -599.408    -523.066       8.218
  C     -599.289    -525.647       8.229
  O     -599.169    -524.454       8.986
  C     -599.320    -526.876       9.143
  O     -600.312    -526.636      10.203
  C     -599.713    -528.192       8.443
  O     -599.051    -529.255       9.135
  C     -601.221    -528.211       8.686
  O     -601.806    -529.437       8.372
  C     -601.236    -527.756      10.154
  N     -602.535    -527.364      10.675
  C     -603.508    -528.355      10.824
  O     -603.330    -529.546      10.567
  N     -604.724    -527.940      11.326
  C     -605.051    -526.656      11.674
  O     -606.141    -526.351      12.123
  C     -604.003    -525.644      11.473
  C     -602.799    -526.032      10.995
  O     -598.916    -521.854       8.929
  O     -598.621    -523.293       6.836
  H     -598.248    -522.443       6.528
  H     -602.738    -529.437       8.690
  H     -605.434    -528.646      11.444
  H     -604.216    -524.624      11.727
  H     -601.994    -525.324      10.862
  H     -600.814    -528.547      10.798
  H     -601.716    -527.471       8.040
  H     -599.433    -528.204       7.380
  H     -598.350    -526.969       9.644
  H     -598.411    -525.715       7.562
  H     -600.207    -525.610       7.622
  P     -597.927    -530.174       8.479
  C     -596.105    -529.054       9.942
  O     -596.511    -529.416       8.637
  O     -598.220    -530.594       7.080
  O     -597.781    -531.445       9.455
  H     -597.448    -532.216       8.943
  H     -595.155    -528.563       9.897
  H     -596.024    -529.933      10.547
  H     -596.829    -528.392      10.370

 6  7  8  9  10  11  12  13  14  15  16  27  31  32  33  34  35 0
 6-311+G(2d,p)
 ****
 36  37 0
 6-311+G(2d,p)
 ****
 1  2  3  4  5  17  18  19  20  21  22  23  24  25 0
 3-21G
 ****
 26  28  29  30  38  39  40  41  42  43  44  45 0
 3-21G
 ****


