%nproc=1
%NoSave
%Mem=1900MB
#P OB98/GEN NMR

erre ene a

0 1
  C       36.987     -53.309    -505.928
  O       37.064     -52.028    -506.521
  H       36.750     -54.040    -506.707
  H       36.197     -53.333    -505.172
  H       37.947     -53.571    -505.477
  P       37.368     -50.799    -505.535
  C       36.348     -48.744    -506.712
  O       37.516     -49.531    -506.514
  C       36.074     -48.559    -508.207
  O       35.552     -49.805    -508.735
  C       35.053     -47.459    -508.507
  O       35.445     -46.764    -509.689
  C       33.770     -48.230    -508.771
  O       32.864     -47.507    -509.603
  C       34.303     -49.520    -509.391
  N       30.185     -51.819    -511.338
  C       30.968     -50.823    -511.805
  N       32.064     -50.279    -511.225
  C       32.347     -50.904    -510.069
  C       31.638     -51.928    -509.464
  C       30.499     -52.388    -510.149
  N       29.680     -53.384    -509.669
  N       32.217     -52.272    -508.258
  C       33.266     -51.477    -508.143
  N       33.375     -50.620    -509.204
  O       38.491     -51.001    -504.576
  O       35.934     -50.553    -504.871
  H       32.645     -46.662    -509.154
  H       35.221     -50.587    -505.537
  H       30.680     -50.402    -512.764
  H       33.962     -51.472    -507.312
  H       34.486     -49.425    -510.469
  H       33.263     -48.437    -507.821
  H       34.942     -46.756    -507.682
  H       37.026     -48.372    -508.719
  H       36.471     -47.762    -506.239
  H       28.892     -53.664    -510.231
  H       29.909     -53.833    -508.794
  H       35.510     -49.258    -506.233
  P       35.454     -45.161    -509.664
  C       33.787     -44.926    -511.623
  O       35.090     -44.623    -511.133
  O       36.639     -44.522    -509.023
  O       34.116     -44.823    -508.843
  H       34.280     -44.045    -508.276
  H       33.670     -44.515    -512.604
  H       33.053     -44.503    -510.970
  H       33.659     -45.988    -511.663

 6  7  8  9  10  11  12  13  14  15  25  28  32  33  34  35 0
 6-311+G(2d,p)
 ****
 36  39  40 0
 6-311+G(2d,p)
 ****
 1  2  3  4  5  16  17  18  19  20  21  22  23  24 0
 3-21G
 ****
 26  27  29  30  31  37  38  41  42  43  44  45  46  47 0
 3-21G
 ****
 48 0
 3-21G
 ****


