%nproc=1
%NoSave
%Mem=1900MB
#P OB98/GEN NMR

erre ene a

0 1
  C      -70.265     267.838     295.773
  O      -69.055     268.060     296.506
  P      -68.180     266.796     296.969
  C      -66.026     267.456     295.732
  O      -66.630     267.221     296.998
  C      -64.506     267.649     295.834
  O      -64.176     269.020     296.196
  C      -63.817     266.734     296.859
  O      -62.530     266.390     296.323
  C      -63.670     267.650     298.063
  O      -62.702     267.174     298.997
  C      -63.336     268.977     297.363
  N      -63.540     270.126     298.227
  C      -62.487     270.502     299.064
  O      -61.473     269.796     299.127
  N      -62.612     271.639     299.826
  C      -63.752     272.252     299.862
  N      -63.840     273.385     300.614
  C      -64.949     271.786     299.134
  C      -64.772     270.744     298.325
  O      -68.469     265.518     296.252
  O      -68.538     266.669     298.533
  H      -61.822     267.181     298.566
  H      -68.540     265.722     298.781
  H      -65.903     272.285     299.260
  H      -65.579     270.329     297.744
  H      -62.291     268.979     297.013
  H      -64.634     267.723     298.587
  H      -64.376     265.817     297.064
  H      -64.072     267.474     294.838
  H      -63.015     273.685     301.125
  H      -66.473     268.352     295.278
  H      -64.680     273.957     300.654
  H      -66.271     266.625     295.058
  P      -62.074     264.852     296.330
  C      -62.914     264.545     293.892
  O      -61.857     264.394     294.807
  O      -63.445     264.108     296.705
  O      -61.002     264.483     297.312
  H      -63.235     263.240     297.124
  H      -62.515     264.458     292.869
  H      -63.397     265.514     293.981
  H      -63.660     263.746     294.044
  H      -70.721     268.778     295.545
  H      -70.936     267.250     296.363
  H      -70.041     267.320     294.864

 3  4  5  6  7  8  9  10  11  12  13  23  27  28  29  30  32 0
 6-311+G(2d,p)
 ****
 34  35 0
 6-311+G(2d,p)
 ****
 1  2  14  15  16  17  18  19  20  21  22  24  25  26 0
 3-21G
 ****
 31  33  36  37  38  39  40  41  42  43  44  45  46 0
 3-21G
 ****


