%nproc=1
%NoSave
%Mem=1900MB
#P OB98/GEN NMR

erre ene a

0 1
  C      774.211    -899.533    -502.930
  O      774.030    -898.103    -503.027
  P      772.530    -897.583    -503.215
  C      772.839    -895.763    -501.379
  O      772.051    -896.873    -501.833
  C      771.944    -894.743    -500.624
  O      771.099    -894.043    -501.608
  C      770.993    -895.343    -499.575
  O      770.904    -894.433    -498.471
  C      769.648    -895.333    -500.289
  O      768.571    -895.363    -499.347
  C      769.755    -894.053    -501.099
  N      764.881    -893.543    -502.360
  C      765.489    -893.393    -501.140
  N      764.679    -893.123    -500.107
  N      766.792    -893.543    -500.952
  C      767.458    -893.773    -502.093
  C      767.014    -893.913    -503.396
  C      765.548    -893.793    -503.553
  O      764.936    -893.963    -504.633
  N      767.997    -894.163    -504.282
  C      769.093    -894.203    -503.543
  N      768.826    -893.963    -502.197
  O      771.643    -898.913    -503.252
  O      772.311    -896.753    -504.461
  H      767.774    -895.013    -499.783
  H      771.144    -898.973    -504.087
  H      763.888    -893.443    -502.473
  H      770.096    -894.403    -503.896
  H      769.628    -893.163    -500.485
  H      769.555    -896.233    -500.900
  H      763.679    -892.943    -500.188
  H      771.290    -896.323    -499.217
  H      765.123    -892.983    -499.172
  H      772.597    -893.983    -500.178
  H      773.323    -895.273    -502.212
  H      773.586    -896.133    -500.697
  P      771.626    -894.873    -497.111
  C      773.465    -893.093    -497.626
  O      773.165    -894.433    -497.245
  O      771.690    -896.483    -497.238
  O      770.960    -894.433    -495.860
  H      771.723    -896.883    -496.325
  H      772.591    -892.463    -497.635
  H      773.860    -893.103    -498.664
  H      774.224    -892.703    -496.950
  H      775.251    -899.754    -502.807
  H      773.850    -900.000    -503.823
  H      773.666    -899.906    -502.088

 3  4  5  6  7  8  9  10  11  12  23  26  30  31  33  0
 6-311+G(2d,p)
 ****
 35  36  37  38 0
 6-311+G(2d,p)
 ****
 1  2  13  14  15  16  17  18  19  20  21  22  24  25  27  28  29 0
 3-21G
 ****
 32  34  39  40  41  42  43  44  45  46  47  48  49 0
 3-21G
 ****


