%nproc=1
%NoSave
%Mem=1900MB
#P OB98/GEN NMR

erre ene a

0 1
  C       40.725     285.849     127.672
  O       41.713     285.961     126.668
  H       40.224     286.814     127.780
  H       41.191     285.586     128.624
  H       39.985     285.094     127.397
  P       42.512     284.623     126.285
  C       44.024     284.781     128.387
  O       43.962     284.750     126.968
  C       45.470     284.678     128.867
  O       45.997     283.368     128.500
  C       46.411     285.735     128.268
  O       47.376     286.085     129.268
  C       47.127     284.967     127.169
  O       48.367     285.565     126.801
  C       47.254     283.598     127.835
  N       47.390     278.607     127.224
  C       46.992     279.367     128.306
  N       46.563     278.697     129.397
  N       47.012     280.673     128.319
  C       47.432     281.214     127.149
  C       47.857     280.574     126.010
  C       47.855     279.126     126.019
  O       48.214     278.397     125.099
  N       48.232     281.477     125.047
  C       48.032     282.658     125.603
  N       47.548     282.549     126.878
  O       42.810     284.828     124.726
  O       41.790     283.347     126.554
  H       48.949     284.859     126.452
  H       42.112     284.406     124.191
  H       47.367     277.603     127.271
  H       48.223     283.613     125.132
  H       48.050     283.573     128.588
  H       46.494     284.911     126.274
  H       46.475     277.694     129.442
  H       45.907     286.637     127.907
  H       46.226     279.238     130.184
  H       45.477     284.724     129.962
  H       43.452     283.936     128.785
  H       43.576     285.714     128.746
  P       47.135     287.427     130.109
  C       49.241     288.402     128.935
  O       48.511     288.247     130.143
  O       47.008     286.887     131.612
  O       45.927     288.201     129.697
  H       46.452     287.492     132.135
  H       50.128     288.969     129.125
  H       48.637     288.915     128.216
  H       49.508     287.439     128.554

 6  7  8  9  10  11  12  13  14  15  26  29  33  34 0
 6-311+G(2d,p)
 ****
 36  38  39  40  41 0
 6-311+G(2d,p)
 ****
 1  2  3  4  5  16  17  18  19  20  21  22  23  24  25 0
 3-21G
 ****
 27  28  30  31  32  35  37  42  43  44  45  46  47 0
 3-21G
 ****
 48  49 0
 3-21G
 ****


