%nproc=1
%NoSave
%Mem=1900MB
#P OB98/GEN NMR

erre ene a

0 1
  C       72.370     285.518    -218.303
  O       71.973     286.844    -218.016
  H       72.496     284.977    -217.362
  H       73.325     285.520    -218.839
  H       71.608     285.012    -218.903
  P       71.693     287.800    -219.272
  C       74.074     288.824    -219.032
  O       73.131     288.177    -219.882
  C       74.731     289.981    -219.780
  O       75.727     289.463    -220.690
  C       73.769     290.795    -220.641
  O       73.017     291.719    -219.871
  C       74.736     291.462    -221.614
  O       75.324     292.643    -221.050
  C       75.815     290.382    -221.802
  N       75.607     290.916    -226.870
  C       75.841     291.801    -225.874
  N       75.898     291.575    -224.545
  C       75.692     290.270    -224.281
  C       75.434     289.255    -225.188
  C       75.399     289.615    -226.542
  N       75.120     288.724    -227.549
  N       75.231     288.059    -224.527
  C       75.369     288.347    -223.248
  N       75.654     289.668    -223.053
  O       71.205     289.163    -218.582
  O       70.698     287.283    -220.258
  H       74.589     293.252    -220.857
  H       70.229     289.179    -218.547
  H       76.002     292.834    -226.190
  H       75.270     287.635    -222.430
  H       76.826     290.803    -221.795
  H       74.233     291.756    -222.535
  H       73.104     290.129    -221.204
  H       75.239     290.624    -219.048
  H       74.844     288.103    -218.731
  H       73.556     289.186    -218.138
  H       75.093     289.056    -228.500
  H       74.859     287.776    -227.309
  P       71.633     292.258    -220.461
  C       72.702     294.195    -221.832
  O       71.952     292.991    -221.856
  O       71.254     293.465    -219.477
  O       70.546     291.236    -220.536
  H       70.587     293.170    -218.826
  H       72.829     294.556    -222.831
  H       73.661     294.009    -221.396
  H       72.182     294.928    -221.251

 6  7  8  9  10  11  12  13  14  15  25  28  32  33  34  35 0
 6-311+G(2d,p)
 ****
 36  37  40 0
 6-311+G(2d,p)
 ****
 1  2  3  4  5  16  17  18  19  20  21  22  23  24 0
 3-21G
 ****
 26  27  29  30  31  38  39 41  42  43  44  45  46  47  48 0
 3-21G
 ****


