%nproc=1
%NoSave
%Mem=1900MB
#P OB98/GEN NMR

erre ene a

0 1
  C       93.036    -322.038    -361.357
  O       91.820    -322.136    -360.650
  H       93.509    -323.025    -361.377
  H       93.708    -321.339    -360.853
  H       92.863    -321.715    -362.386
  P       90.841    -320.867    -360.610
  C       91.487    -320.161    -358.212
  O       91.485    -319.809    -359.595
  C       91.919    -318.971    -357.369
  O       93.282    -318.602    -357.682
  C       91.095    -317.712    -357.611
  O       89.821    -317.795    -356.997
  C       92.018    -316.651    -357.043
  O       91.892    -316.564    -355.614
  C       93.414    -317.185    -357.434
  N       93.963    -316.493    -358.600
  C       93.999    -315.102    -358.531
  O       93.602    -314.460    -357.556
  N       94.444    -314.457    -359.659
  C       94.714    -315.057    -360.856
  O       94.861    -314.430    -361.905
  C       94.720    -316.529    -360.858
  C       94.338    -317.172    -359.746
  O       89.395    -321.168    -360.383
  O       91.074    -320.173    -362.045
  H       90.328    -320.400    -362.632
  H       92.286    -317.393    -355.259
  H       94.426    -313.453    -359.630
  H       94.999    -317.036    -361.767
  H       94.308    -318.257    -359.733
  H       94.117    -317.072    -356.599
  H       91.802    -315.661    -357.457
  H       90.985    -317.543    -358.692
  H       91.880    -319.261    -356.302
  H       92.191    -320.991    -358.066
  H       90.483    -320.493    -357.932
  P       88.538    -317.127    -357.696
  C       88.412    -315.139    -356.067
  O       88.585    -315.545    -357.427
  O       87.234    -317.779    -357.387
  O       88.865    -317.221    -359.273
  H       88.095    -317.618    -359.723
  H       88.461    -314.072    -356.004
  H       89.186    -315.567    -355.466
  H       87.459    -315.474    -355.713

 6  7  8  9  10  11  12  13  14  15  16  27  31  32  33  34  35 0
 6-311+G(2d,p)
 ****
 36  37 0
 6-311+G(2d,p)
 ****
 1  2  3  4  5  17  18  19  20  21  22  23  24  25 0
 3-21G
 ****
 26  28  29  30  38  39  40  41  42  43  44  45 0
 3-21G
 ****


