%nproc=1
%NoSave
%Mem=1900MB
#P OB98/GEN NMR

erre ene a

0 1
  C      305.769     215.686    -218.511
  O      306.962     215.014    -218.159
  H      306.016     216.506    -219.191
  H      305.298     216.101    -217.615
  H      305.079     215.003    -219.014
  P      306.804     213.663    -217.304
  C      308.054     212.341    -219.197
  O      307.960     212.682    -217.826
  C      309.442     211.782    -219.520
  O      310.408     212.859    -219.428
  C      309.891     210.669    -218.572
  O      310.657     209.721    -219.318
  C      310.802     211.389    -217.592
  O      311.723     210.502    -216.963
  C      311.437     212.454    -218.502
  N      311.963     213.590    -217.747
  C      313.348     213.638    -217.565
  O      314.064     212.745    -218.020
  N      313.886     214.670    -216.840
  C      313.107     215.542    -216.285
  N      313.699     216.526    -215.559
  C      311.636     215.506    -216.412
  C      311.137     214.519    -217.155
  O      305.467     213.038    -217.925
  O      306.761     213.869    -215.828
  H      312.535     211.007    -216.735
  H      305.436     213.076    -218.895
  H      311.026     216.250    -215.922
  H      310.071     214.420    -217.309
  H      312.260     212.021    -219.085
  H      310.207     211.868    -216.806
  H      309.055     210.166    -218.083
  H      309.446     211.440    -220.561
  H      314.707     216.502    -215.479
  H      307.863     213.219    -219.823
  H      313.188     217.225    -215.038
  H      307.284     211.594    -219.414
  P      311.033     208.314    -218.656
  C      309.859     206.737    -220.338
  O      311.093     207.190    -219.799
  O      310.258     207.942    -217.439
  O      312.586     208.506    -218.284
  H      312.736     208.098    -217.409
  H      310.047     205.994    -221.084
  H      309.338     207.561    -220.779
  H      309.262     206.315    -219.557

 6  7  8  9  10  11  12  13  14  15  16  26  30  31  32  33  35 0
 6-311+G(2d,p)
 ****
 37  38 0
 6-311+G(2d,p)
 ****
 1  2  3  4  5  17  18  19  20  21  22  23  24  25 0
 3-21G
 ****
 27  28  29  34  36  39  40  41  42  43  44  45  46 0
 3-21G
 ****


