%nproc=1
%NoSave
%Mem=1900MB
#P OB98/GEN NMR

erre ene a

0 1
  C      494.496    -773.579     433.098
  O      495.482    -774.335     433.778
  P      496.636    -775.031     432.897
  C      496.553    -776.570     430.801
  O      495.907    -776.137     431.995
  C      495.511    -777.016     429.775
  O      494.483    -776.015     429.618
  C      496.069    -777.235     428.374
  O      496.700    -778.503     428.238
  C      494.800    -777.189     427.544
  O      494.103    -778.449     427.619
  C      493.995    -776.088     428.258
  N      492.931    -773.404     424.104
  C      492.477    -774.650     424.492
  N      491.671    -775.299     423.611
  N      492.778    -775.216     425.621
  C      493.601    -774.457     426.403
  C      494.106    -773.206     426.124
  C      493.772    -772.601     424.854
  O      494.181    -771.522     424.436
  N      494.896    -772.750     427.153
  C      494.859    -773.720     428.050
  N      494.122    -774.793     427.619
  O      497.448    -775.895     433.974
  O      497.512    -774.070     432.167
  H      494.699    -779.120     427.234
  H      498.325    -776.139     433.610
  H      492.667    -773.012     423.206
  H      495.365    -773.697     429.002
  H      492.925    -776.340     428.304
  H      494.996    -776.986     426.483
  H      491.449    -774.945     422.695
  H      496.736    -776.416     428.078
  H      491.376    -776.248     423.841
  H      495.032    -777.934     430.152
  H      497.225    -777.390     431.028
  H      497.151    -775.742     430.402
  P      497.442    -778.788     426.851
  C      496.709    -778.535     424.363
  O      496.315    -778.651     425.724
  O      497.740    -780.368     426.915
  O      498.690    -777.989     426.633
  H      498.509    -780.589     426.364
  H      495.844    -778.723     423.727
  H      497.484    -779.268     424.114
  H      497.086    -777.525     424.176
  H      493.801    -773.180     433.807
  H      493.978    -774.209     432.406
  H      494.965    -772.777     432.567

 3  4  5  6  7  8  9  10  11  12  23  26  30  31 0
 6-311+G(2d,p)
 ****
 33  35  36  37  38 0
 6-311+G(2d,p)
 ****
 1  2  13  14  15  16  17  18  19  20  21  22  24  25 0
 3-21G
 ****
 27  28  29  32  34  39  40  41  42  43  44  45  46  47  48  49 0
 3-21G
 ****


