%nproc=1
%NoSave
%Mem=1900MB
#P OB98/GEN NMR

erre ene a

0 1
  C      185.716     399.376      57.697
  O      184.938     400.537      57.432
  P      185.285     401.369      56.104
  C      183.827     402.786      54.487
  O      183.869     401.726      55.437
  C      182.633     402.625      53.555
  O      182.848     401.507      52.681
  C      181.316     402.339      54.261
  O      180.718     403.526      54.766
  C      180.492     401.757      53.121
  O      179.950     402.824      52.319
  C      181.547     400.972      52.321
  N      179.988     396.435      50.698
  C      179.816     397.687      50.138
  N      179.154     397.728      48.959
  N      180.247     398.793      50.679
  C      180.925     398.595      51.834
  C      181.159     397.407      52.492
  C      180.634     396.192      51.906
  O      180.702     395.069      52.390
  N      181.899     397.605      53.631
  C      182.143     398.900      53.645
  N      181.545     399.550      52.591
  O      185.886     400.258      55.122
  O      186.226     402.509      56.299
  H      179.459     403.414      52.926
  H      186.480     400.675      54.472
  H      179.652     395.617      50.230
  H      182.739     399.407      54.391
  H      181.423     401.124      51.243
  H      179.649     401.155      53.465
  H      178.914     396.903      48.432
  H      181.441     401.586      55.046
  H      179.046     398.635      48.513
  H      182.557     403.529      52.940
  H      184.748     402.777      53.891
  H      183.770     403.740      55.026
  P      179.860     403.377      56.118
  C      178.620     405.275      57.387
  O      179.805     404.849      56.745
  O      180.842     402.578      57.091
  O      178.550     402.687      55.941
  H      180.329     402.082      57.759
  H      178.142     404.455      57.929
  H      177.924     405.674      56.645
  H      178.866     406.066      58.100
  H      185.381     398.922      58.606
  H      186.745     399.651      57.795
  H      185.607     398.682      56.890

 3  4  5  6  7  8  9  10  11  12  23  26  30  31  33  0
 6-311+G(2d,p)
 ****
 35  36  37  38 0
 6-311+G(2d,p)
 ****
 1  2  13  14  15  16  17  18  19  20  21  22  24  25  27  28  29 0
 3-21G
 ****
 32  34  39  40  41  42  43  44  45  46  47  48  49 0
 3-21G
 ****


