%nproc=1
%NoSave
%Mem=1900MB
#P OB98/GEN NMR

erre ene a

0 1
  C      -67.327     212.683     -91.406
  O      -68.506     212.877     -92.161
  H      -67.454     211.798     -90.777
  H      -67.151     213.548     -90.762
  H      -66.468     212.527     -92.065
  P      -68.462     213.978     -93.324
  C      -68.696     215.945     -91.640
  O      -69.240     215.267     -92.761
  C      -68.800     217.456     -91.843
  O      -67.928     217.837     -92.945
  C      -70.214     217.943     -92.187
  O      -70.415     219.220     -91.571
  C      -70.157     218.122     -93.693
  O      -71.124     219.031     -94.203
  C      -68.715     218.610     -93.873
  N      -68.232     218.442     -95.241
  C      -67.697     219.561     -95.871
  O      -67.524     220.654     -95.334
  N      -67.348     219.388     -97.186
  C      -67.502     218.247     -97.917
  O      -67.191     218.161     -99.097
  C      -68.082     217.103     -97.199
  C      -68.417     217.253     -95.915
  O      -69.468     213.386     -94.418
  O      -67.110     214.266     -93.885
  H      -68.990     212.811     -95.044
  H      -71.050     219.858     -93.684
  H      -66.960     220.189     -97.657
  H      -68.229     216.184     -97.749
  H      -68.866     216.434     -95.362
  H      -68.631     219.662     -93.577
  H      -70.307     217.156     -94.189
  H      -71.011     217.257     -91.884
  H      -68.421     217.960     -90.945
  H      -67.642     215.674     -91.528
  H      -69.237     215.642     -90.737
  P      -70.966     219.231     -90.063
  C      -73.075     220.393     -91.098
  O      -72.129     220.334     -90.039
  O      -69.746     219.921     -89.295
  O      -71.342     217.875     -89.570
  H      -69.300     220.603     -89.824
  H      -73.770     221.185     -90.912
  H      -73.602     219.464     -91.158
  H      -72.566     220.575     -92.021

 6  7  8  9  10  11  12  13  14  15  16  27  31  32  33  34  35 0
 6-311+G(2d,p)
 ****
 36  37 0
 6-311+G(2d,p)
 ****
 1  2  3  4  5  17  18  19  20  21  22  23  24  25 0
 3-21G
 ****
 26  28  29  30  38  39  40  41  42  43  44  45 0
 3-21G
 ****


