%nproc=1
%NoSave
%Mem=1900MB
#P OB98/GEN NMR

erre ene a

0 1
  C      261.623     190.679    -182.531
  O      261.721     192.104    -182.542
  P      261.437     192.887    -183.914
  C      258.863     192.970    -183.768
  O      260.074     193.719    -183.743
  C      257.706     193.826    -184.278
  O      256.524     193.039    -184.517
  C      257.280     194.906    -183.297
  O      258.218     195.969    -183.272
  C      255.901     195.267    -183.829
  O      255.996     196.190    -184.924
  C      255.380     193.903    -184.330
  N      254.395     193.300    -183.444
  C      253.144     193.927    -183.403
  O      252.936     194.948    -184.058
  N      252.164     193.384    -182.606
  C      252.417     192.322    -181.906
  N      251.409     191.825    -181.138
  C      253.725     191.638    -181.915
  C      254.661     192.179    -182.692
  O      261.529     192.066    -185.157
  O      262.551     194.044    -183.897
  H      256.426     195.699    -185.655
  H      262.792     194.261    -184.821
  H      253.883     190.750    -181.321
  H      255.651     191.745    -182.754
  H      254.915     194.015    -185.320
  H      255.280     195.738    -183.061
  H      257.187     194.475    -182.289
  H      258.015     194.288    -185.228
  H      250.524     192.319    -181.141
  H      258.642     192.600    -182.763
  H      251.489     190.976    -180.599
  H      259.012     192.089    -184.401
  P      258.582     196.609    -181.850
  C      260.015     194.648    -180.940
  O      259.982     195.992    -181.380
  O      257.524     195.916    -180.863
  O      258.480     198.100    -181.787
  H      257.274     196.542    -180.158
  H      261.051     194.298    -180.964
  H      259.412     194.004    -181.585
  H      259.646     194.588    -179.914
  H      261.840     190.314    -181.549
  H      262.324     190.268    -183.227
  H      260.632     190.388    -182.809

 3  4  5  6  7  8  9  10  11  12  13  23  27  28  29  30  32 0
 6-311+G(2d,p)
 ****
 34  35 0
 6-311+G(2d,p)
 ****
 1  2  14  15  16  17  18  19  20  21  22  24  25  26 0
 3-21G
 ****
 31  33  36  37  38  39  40  41  42  43  44  45  46 0
 3-21G
 ****


