%nproc=1
%NoSave
%Mem=1900MB
#P OB98/GEN NMR

erre ene a

0 1
  C     -153.421    -319.051    -376.216
  O     -152.436    -319.702    -376.991
  H     -153.897    -318.281    -376.827
  H     -152.959    -318.572    -375.349
  H     -154.182    -319.765    -375.887
  P     -151.728    -320.983    -376.339
  C     -150.647    -321.506    -378.676
  O     -150.475    -321.362    -377.267
  C     -149.294    -321.740    -379.349
  O     -148.530    -320.519    -379.419
  C     -148.383    -322.689    -378.579
  O     -148.815    -324.033    -378.639
  C     -147.059    -322.436    -379.291
  O     -146.999    -323.133    -380.541
  C     -147.130    -320.903    -379.522
  N     -146.299    -320.158    -378.586
  C     -145.305    -319.354    -379.161
  O     -145.180    -319.300    -380.388
  N     -144.465    -318.654    -378.331
  C     -144.611    -318.726    -377.045
  N     -143.736    -318.020    -376.277
  C     -145.655    -319.543    -376.400
  C     -146.454    -320.225    -377.222
  O     -152.771    -322.157    -376.655
  O     -151.370    -320.845    -374.892
  H     -147.337    -324.032    -380.372
  H     -153.007    -322.227    -377.595
  H     -145.746    -319.569    -375.322
  H     -147.250    -320.850    -376.825
  H     -146.805    -320.652    -380.541
  H     -146.207    -322.766    -378.695
  H     -148.278    -322.357    -377.538
  H     -149.473    -322.096    -380.367
  H     -143.016    -317.490    -376.762
  H     -151.139    -320.628    -379.099
  H     -143.730    -318.027    -375.274
  H     -151.303    -322.369    -378.840
  P     -149.031    -324.882    -377.297
  C     -149.647    -326.880    -378.807
  O     -148.856    -326.425    -377.717
  O     -150.283    -324.581    -376.548
  O     -147.685    -324.601    -376.467
  H     -146.864    -324.872    -376.921
  H     -149.443    -327.914    -378.989
  H     -149.410    -326.311    -379.682
  H     -150.683    -326.757    -378.571

 6  7  8  9  10  11  12  13  14  15  16  26  30  31  32  33  35 0
 6-311+G(2d,p)
 ****
 37  38 0
 6-311+G(2d,p)
 ****
 1  2  3  4  5  17  18  19  20  21  22  23  24  25 0
 3-21G
 ****
 27  28  29  34  36  39  40  41  42  43  44  45  46 0
 3-21G
 ****


