%nproc=1
%NoSave
%Mem=1900MB
#P OB98/GEN NMR

erre ene a

0 1
  C       -9.033    -255.036      96.666
  O      -10.263    -255.465      97.225
  P      -11.318    -256.182      96.251
  C      -13.636    -257.344      96.698
  O      -12.403    -256.866      97.211
  C      -14.198    -258.440      97.608
  O      -13.394    -259.633      97.494
  C      -14.201    -258.093      99.091
  O      -15.261    -257.210      99.424
  C      -14.305    -259.477      99.718
  O      -15.668    -259.936      99.693
  C      -13.443    -260.325      98.760
  N      -12.099    -260.585      99.273
  C      -11.905    -261.818      99.890
  O      -12.794    -262.658     100.011
  N      -10.648    -262.044     100.386
  C       -9.611    -261.158     100.383
  O       -8.519    -261.397     100.880
  C       -9.885    -259.860      99.745
  C      -11.097    -259.638      99.229
  O      -10.432    -257.398      95.705
  O      -11.861    -255.273      95.203
  H       -9.740    -257.655      96.339
  H      -16.208    -259.219     100.080
  H      -10.477    -262.939     100.819
  H       -9.089    -259.127      99.731
  H      -11.320    -258.685      98.764
  H      -13.929    -261.287      98.563
  H      -13.973    -259.495     100.761
  H      -13.243    -257.636      99.368
  H      -15.214    -258.680      97.267
  H      -13.472    -257.749      95.695
  H      -14.340    -256.508      96.627
  P      -15.236    -256.588     100.909
  C      -16.509    -254.563     101.964
  O      -15.973    -255.168     100.809
  O      -13.687    -256.220     101.066
  O      -15.764    -257.512     101.955
  H      -13.311    -255.821     100.264
  H      -16.635    -253.493     101.774
  H      -15.850    -254.692     102.828
  H      -17.487    -254.998     102.185
  H       -8.435    -254.580      97.427
  H       -9.223    -254.326      95.888
  H       -8.512    -255.878      96.261

 3  4  5  6  7  8  9  10  11  12  13  24  28  29  30  31  32 0
 6-311+G(2d,p)
 ****
 33  34 0
 6-311+G(2d,p)
 ****
 1  2  14  15  16  17  18  19  20  21  22  23  25  26  27 0
 3-21G
 ****
 35  36  37  38  39  40  41  42  43  44  45 0
 3-21G
 ****


