%nproc=1
%NoSave
%Mem=1900MB
#P OB98/GEN NMR

erre ene a

0 1
  C     1002.231     510.322     537.779
  O     1003.134     509.695     536.918
  P     1003.193     508.063     536.949
  C     1002.119     507.493     534.638
  O     1003.329     507.611     535.402
  C     1002.441     507.139     533.196
  O     1003.011     508.306     532.515
  C     1003.436     506.012     532.989
  O     1002.832     504.738     533.106
  C     1003.886     506.281     531.563
  O     1002.892     505.787     530.631
  C     1003.929     507.831     531.502
  N     1008.608     508.429     529.528
  C     1007.519     507.766     529.102
  N     1006.303     507.635     529.679
  C     1006.295     508.247     530.877
  C     1007.362     508.950     531.481
  C     1008.531     509.021     530.758
  N     1009.652     509.724     531.200
  N     1006.961     509.418     532.717
  C     1005.719     509.053     532.840
  N     1005.249     508.359     531.750
  O     1001.698     507.671     537.333
  O     1004.200     507.500     537.877
  H     1002.116     506.377     530.718
  H     1001.693     506.777     537.738
  H     1007.619     507.276     528.124
  H     1005.085     509.291     533.677
  H     1003.577     508.212     530.560
  H     1004.828     505.791     531.319
  H     1004.280     506.123     533.668
  H     1001.472     506.923     532.692
  H     1001.564     508.428     534.693
  H     1010.384     509.866     530.550
  H     1009.543     510.323     532.016
  H     1001.500     506.686     535.110
  P     1003.216     503.860     534.392
  C     1001.128     504.451     535.834
  O     1001.815     503.467     535.050
  O     1003.845     504.965     535.397
  O     1004.161     502.760     534.098
  H     1004.447     504.541     536.008
  H     1000.072     504.131     535.934
  H     1001.124     505.423     535.321
  H     1001.581     504.543     536.801
  H     1002.298     511.383     537.655
  H     1002.466     510.066     538.791
  H     1001.237     509.998     537.551

 3  4  5  6  7  8  9  10  11  12  22  25  29  30  31  32 0
 6-311+G(2d,p)
 ****
 33  36  37 0
 6-311+G(2d,p)
 ****
 1  2  13  14  15  16  17  18  19  20  21  23  24  26 0
 3-21G
 ****
 27  28  34  35  38  39  40  41  42  43  44  45  46  47  48 0
 3-21G
 ****


