%nproc=1
%NoSave
%Mem=1900MB
#P OB98/GEN NMR

erre ene a

0 1
  C     -485.423    1155.525     718.409
  O     -484.844    1156.342     719.408
  H     -484.629    1155.115     717.784
  H     -486.090    1156.125     717.776
  H     -485.982    1154.694     718.855
  P     -485.773    1156.917     720.571
  C     -484.492    1159.128     720.970
  O     -484.842    1157.842     721.488
  C     -483.545    1159.856     721.942
  O     -484.102    1159.758     723.289
  C     -482.125    1159.278     721.990
  O     -481.231    1160.364     722.316
  C     -482.248    1158.301     723.153
  O     -481.003    1157.837     723.604
  C     -483.068    1159.180     724.122
  N     -483.648    1158.486     725.251
  C     -482.860    1158.303     726.384
  O     -481.698    1158.696     726.484
  N     -483.438    1157.625     727.422
  C     -484.715    1157.145     727.451
  O     -485.196    1156.580     728.422
  C     -485.501    1157.355     726.233
  C     -484.950    1158.014     725.210
  O     -486.593    1155.912     721.316
  O     -486.707    1157.986     719.814
  H     -487.589    1157.603     719.657
  H     -481.143    1157.178     724.321
  H     -482.881    1157.488     728.246
  H     -486.517    1156.977     726.215
  H     -485.509    1158.186     724.305
  H     -482.450    1160.014     724.484
  H     -482.817    1157.425     722.852
  H     -481.806    1158.813     721.053
  H     -483.534    1160.918     721.680
  H     -485.408    1159.707     720.835
  H     -484.005    1158.993     719.999
  P     -480.777    1161.477     721.245
  C     -478.443    1161.717     722.321
  O     -479.636    1162.371     721.921
  O     -481.915    1162.265     720.674
  O     -480.022    1160.668     720.096
  H     -480.076    1161.169     719.250
  H     -477.773    1162.430     722.754
  H     -477.981    1161.266     721.468
  H     -478.675    1160.962     723.042

 6  7  8  9  10  11  12  13  14  15  16  27  31  32  33  34  35 0
 6-311+G(2d,p)
 ****
 36  37 0
 6-311+G(2d,p)
 ****
 1  2  3  4  5  17  18  19  20  21  22  23  24  25 0
 3-21G
 ****
 26  28  29  30  38  39  40  41  42  43  44  45 0
 3-21G
 ****


