%nproc=1
%NoSave
%Mem=1900MB
#P OB98/GEN NMR

erre ene a

0 1
  C     1052.849      62.483     337.314
  O     1054.247      62.575     337.516
  H     1052.598      61.447     337.079
  H     1052.559      63.114     336.471
  H     1052.306      62.785     338.212
  P     1054.802      63.927     338.168
  C     1056.003      64.967     336.116
  O     1054.889      65.022     336.989
  C     1055.881      66.028     335.024
  O     1056.994      65.883     334.106
  C     1054.582      65.934     334.204
  O     1054.121      67.255     333.916
  C     1055.026      65.252     332.924
  O     1054.164      65.555     331.822
  C     1056.443      65.778     332.777
  N     1057.143      64.121     328.062
  C     1056.296      65.087     328.538
  N     1055.498      65.715     327.651
  N     1056.219      65.428     329.820
  C     1057.097      64.754     330.595
  C     1057.994      63.768     330.233
  C     1058.040      63.388     328.841
  O     1058.755      62.524     328.353
  N     1058.682      63.304     331.319
  C     1058.210      63.999     332.333
  N     1057.256      64.899     331.945
  O     1056.339      63.585     338.472
  O     1054.098      64.386     339.399
  H     1054.102      66.532     331.765
  H     1056.497      63.599     339.434
  H     1057.156      63.892     327.077
  H     1058.518      63.891     333.366
  H     1056.478      66.777     332.304
  H     1055.022      64.158     333.065
  H     1055.535      65.541     326.660
  H     1053.800      65.375     334.724
  H     1054.891      66.454     327.982
  H     1055.979      67.016     335.488
  H     1056.050      63.970     335.653
  H     1056.921      65.130     336.695
  P     1052.833      67.765     334.726
  C     1051.022      66.918     333.084
  O     1051.605      66.808     334.369
  O     1052.459      69.141     333.988
  O     1053.072      67.987     336.181
  H     1052.689      69.899     334.549
  H     1050.218      66.218     332.996
  H     1051.760      66.709     332.338
  H     1050.647      67.911     332.946

 6  7  8  9  10  11  12  13  14  15  26  29  33  34 0
 6-311+G(2d,p)
 ****
 36  38  39  40  41 0
 6-311+G(2d,p)
 ****
 1  2  3  4  5  16  17  18  19  20  21  22  23  24  25 0
 3-21G
 ****
 27  28  30  31  32  35  37  42  43  44  45  46  47 0
 3-21G
 ****
 48  49 0
 3-21G
 ****


