%nproc=1
%NoSave
%Mem=1900MB
#P OB98/GEN NMR

erre ene a

0 1
  C      737.540    -104.597      14.835
  O      737.126    -104.537      13.484
  H      736.666    -104.448      15.474
  H      738.261    -103.802      15.042
  H      737.980    -105.571      15.063
  P      738.187    -104.891      12.338
  C      737.908    -107.427      12.707
  O      738.807    -106.323      12.698
  C      738.539    -108.616      11.982
  O      739.681    -109.097      12.728
  C      737.610    -109.815      11.843
  O      736.639    -109.606      10.834
  C      738.611    -110.919      11.559
  O      738.985    -110.934      10.173
  C      739.809    -110.508      12.444
  N      739.873    -111.293      13.676
  C      740.954    -112.157      13.802
  O      741.834    -112.271      12.948
  N      740.966    -112.938      14.926
  C      739.953    -113.034      15.836
  O      739.892    -113.918      16.686
  C      738.865    -112.056      15.687
  C      738.868    -111.249      14.623
  O      739.187    -103.825      12.031
  O      737.270    -105.211      11.063
  H      737.272    -104.440      10.462
  H      738.244    -111.369       9.703
  H      741.729    -113.601      15.006
  H      738.077    -112.047      16.431
  H      738.060    -110.544      14.475
  H      740.751    -110.637      11.897
  H      738.203    -111.903      11.804
  H      737.122    -110.015      12.806
  H      738.889    -108.276      10.997
  H      736.988    -107.131      12.187
  H      737.669    -107.682      13.741
  P      735.365    -110.574      10.724
  C      733.912    -108.559      11.393
  O      734.177    -109.943      11.601
  O      735.639    -112.022      10.988
  O      734.842    -110.359       9.224
  H      734.727    -111.235       8.802
  H      733.107    -108.251      12.026
  H      733.643    -108.397      10.370
  H      734.787    -107.989      11.626

 6  7  8  9  10  11  12  13  14  15  16  27  31  32  33  34  35 0
 6-311+G(2d,p)
 ****
 36  37 0
 6-311+G(2d,p)
 ****
 1  2  3  4  5  17  18  19  20  21  22  23  24  25 0
 3-21G
 ****
 26  28  29  30  38  39  40  41  42  43  44  45 0
 3-21G
 ****


