%nproc=1
%NoSave
%Mem=1900MB
#P OB98/GEN NMR

erre ene a

0 1
  C       85.204      24.271    -543.582
  O       83.949      24.112    -542.954
  H       85.077      24.242    -544.667
  H       85.618      25.245    -543.304
  H       85.900      23.487    -543.265
  P       83.297      22.646    -542.976
  C       83.673      22.209    -540.445
  O       83.986      21.827    -541.778
  C       84.717      21.661    -539.473
  O       86.017      22.225    -539.817
  C       84.441      21.988    -537.994
  O       84.805      20.853    -537.205
  C       85.405      23.121    -537.704
  O       85.748      23.212    -536.328
  C       86.583      22.753    -538.604
  N       89.315      26.419    -536.382
  C       88.828      25.248    -535.915
  N       88.153      24.300    -536.594
  C       88.061      24.622    -537.898
  C       88.510      25.773    -538.517
  C       89.155      26.709    -537.691
  N       89.594      27.933    -538.141
  N       88.173      25.759    -539.857
  C       87.505      24.636    -540.031
  N       87.407      23.915    -538.875
  O       83.946      22.001    -544.292
  O       81.807      22.603    -543.010
  H       86.309      23.998    -536.192
  H       83.396      22.222    -545.068
  H       88.988      25.054    -534.861
  H       87.048      24.316    -540.961
  H       87.228      21.981    -538.161
  H       84.957      24.076    -538.013
  H       83.399      22.263    -537.792
  H       84.790      20.576    -539.621
  H       82.692      21.806    -540.178
  H       89.945      28.587    -537.460
  H       89.385      28.213    -539.089
  H       83.634      23.302    -540.383
  P       83.798      19.605    -537.202
  C       85.187      18.173    -538.879
  O       83.951      18.822    -538.590
  O       82.357      20.290    -537.320
  O       83.899      18.749    -535.979
  H       81.690      19.766    -536.841
  H       85.126      17.700    -539.837
  H       85.387      17.436    -538.129
  H       85.976      18.896    -538.888

 6  7  8  9  10  11  12  13  14  15  25  28  32  33  34  35 0
 6-311+G(2d,p)
 ****
 36  39  40 0
 6-311+G(2d,p)
 ****
 1  2  3  4  5  16  17  18  19  20  21  22  23  24 0
 3-21G
 ****
 26  27  29  30  31  37  38  41  42  43  44  45  46  47 0
 3-21G
 ****
 48 0
 3-21G
 ****


