%nproc=1
%NoSave
%Mem=1900MB
#P OB98/GEN NMR

erre ene a

0 1
  C       82.585     269.219     451.761
  O       82.815     270.487     451.118
  P       83.118     270.593     449.548
  C       81.873     271.491     447.452
  O       82.032     271.573     448.874
  C       80.697     272.316     446.964
  O       79.446     271.600     447.122
  C       80.503     273.654     447.699
  O       81.427     274.619     447.218
  C       79.041     273.953     447.383
  O       78.915     274.535     446.082
  C       78.412     272.549     447.414
  N       74.987     274.111     450.903
  C       75.373     274.630     449.693
  N       76.284     274.161     448.833
  C       76.838     273.015     449.306
  C       76.545     272.356     450.489
  C       75.581     272.965     451.318
  N       75.196     272.438     452.541
  N       77.318     271.219     450.629
  C       78.049     271.168     449.519
  N       77.787     272.234     448.686
  O       83.247     269.270     448.845
  O       84.485     271.424     449.441
  H       79.400     275.376     446.080
  H       84.965     271.184     448.621
  H       74.858     275.546     449.405
  H       78.770     270.401     449.296
  H       77.647     272.440     446.632
  H       78.599     274.657     448.102
  H       80.621     273.496     448.783
  H       80.831     272.495     445.880
  H       81.717     270.424     447.192
  H       74.522     272.941     453.084
  H       75.663     271.608     452.890
  H       82.811     271.821     446.979
  P       82.945     274.617     447.758
  C       85.225     275.331     446.821
  O       83.813     275.466     446.725
  O       83.505     273.271     448.105
  O       82.878     275.579     449.053
  H       83.563     275.288     449.690
  H       85.596     275.950     447.654
  H       85.687     275.682     445.892
  H       85.506     274.286     446.991
  H       82.403     269.376     452.804
  H       83.446     268.596     451.639
  H       81.735     268.744     451.318

 3  4  5  6  7  8  9  10  11  12  22  25  29  30  31  32 0
 6-311+G(2d,p)
 ****
 33  36  37 0
 6-311+G(2d,p)
 ****
 1  2  13  14  15  16  17  18  19  20  21  23  24  26 0
 3-21G
 ****
 27  28  34  35  38  39  40  41  42  43  44  45  46  47  48 0
 3-21G
 ****


