%nproc=1
%NoSave
%Mem=1900MB
#P OB98/GEN NMR

erre ene a

0 1
  C     -280.628     187.764    -422.521
  O     -280.629     188.000    -423.914
  H     -279.596     187.601    -422.192
  H     -281.212     186.870    -422.288
  H     -281.035     188.626    -421.984
  P     -282.054     188.306    -424.592
  C     -281.968     190.881    -424.226
  O     -282.602     189.647    -423.899
  C     -282.846     191.674    -425.197
  O     -284.132     191.923    -424.587
  C     -282.290     193.043    -425.568
  O     -281.276     192.959    -426.553
  C     -283.552     193.750    -426.054
  O     -283.841     193.436    -427.421
  C     -284.638     193.162    -425.141
  N     -287.281     197.384    -424.032
  C     -287.146     196.670    -425.175
  N     -286.437     195.540    -425.382
  C     -285.826     195.153    -424.245
  C     -285.860     195.781    -423.012
  C     -286.632     196.953    -422.923
  N     -286.739     197.696    -421.766
  N     -285.067     195.105    -422.101
  C     -284.571     194.082    -422.775
  N     -285.005     194.073    -424.071
  O     -282.993     187.156    -423.987
  O     -282.059     188.309    -426.085
  H     -283.949     192.464    -427.466
  H     -283.026     186.405    -424.607
  H     -287.684     197.061    -426.036
  H     -283.889     193.340    -422.375
  H     -285.554     192.921    -425.690
  H     -283.450     194.835    -425.985
  H     -281.919     193.558    -424.670
  H     -283.010     191.059    -426.098
  H     -280.999     190.678    -424.698
  H     -281.807     191.452    -423.305
  H     -287.293     198.533    -421.782
  H     -286.172     197.439    -420.964
  P     -280.276     194.198    -426.733
  C     -278.581     193.128    -425.065
  O     -279.353     194.270    -425.415
  O     -281.240     195.468    -426.594
  O     -279.519     194.204    -428.020
  H     -281.461     195.828    -427.473
  H     -278.027     193.332    -424.173
  H     -277.904     192.898    -425.861
  H     -279.232     192.295    -424.898

 6  7  8  9  10  11  12  13  14  15  25  28  32  33  34  35 0
 6-311+G(2d,p)
 ****
 36  37  40 0
 6-311+G(2d,p)
 ****
 1  2  3  4  5  16  17  18  19  20  21  22  23  24 0
 3-21G
 ****
 26  27  29  30  31  38  39 41  42  43  44  45  46  47  48 0
 3-21G
 ****


