%nproc=1
%NoSave
%Mem=1900MB
#P OB98/GEN NMR

erre ene a

0 1
  C       -3.674     -90.958      28.692
  O       -3.111     -89.722      28.241
  P       -3.726     -89.067      26.912
  C       -2.193     -90.398      25.293
  O       -3.521     -90.090      25.690
  C       -2.059     -90.433      23.763
  O       -2.547     -91.695      23.229
  C       -2.841     -89.322      23.056
  O       -2.151     -88.984      21.847
  C       -4.143     -90.012      22.695
  O       -4.845     -89.314      21.667
  C       -3.623     -91.397      22.314
  N       -7.888     -93.063      20.198
  C       -7.112     -91.962      19.891
  N       -7.516     -91.214      18.841
  N       -6.035     -91.625      20.552
  C       -5.736     -92.487      21.555
  C       -6.426     -93.605      21.961
  C       -7.629     -93.952      21.234
  O       -8.364     -94.907      21.471
  N       -5.818     -94.207      23.034
  C       -4.766     -93.450      23.278
  N       -4.652     -92.415      22.387
  O       -2.695     -87.886      26.584
  O       -5.114     -88.542      27.082
  H       -5.501     -89.939      21.286
  H       -3.109     -87.025      26.776
  H       -8.713     -93.269      19.661
  H       -4.061     -93.601      24.081
  H       -3.220     -91.424      21.293
  H       -4.793     -90.067      23.578
  H       -8.306     -91.447      18.258
  H       -2.994     -88.415      23.649
  H       -6.942     -90.425      18.569
  H       -0.996     -90.358      23.504
  H       -1.892     -91.367      25.705
  H       -1.510     -89.667      25.736
  P       -0.758     -88.206      21.997
  C       -2.039     -86.184      23.003
  O       -0.980     -87.111      23.145
  O       -0.666     -87.333      20.658
  O        0.434     -89.090      22.173
  H        0.264     -87.136      20.446
  H       -2.861     -86.479      23.661
  H       -2.401     -86.127      21.972
  H       -1.682     -85.194      23.303
  H       -3.171     -91.276      29.581
  H       -3.558     -91.701      27.931
  H       -4.714     -90.821      28.901

 3  4  5  6  7  8  9  10  11  12  23  26  30  31 0
 6-311+G(2d,p)
 ****
 33  35  36  37  38 0
 6-311+G(2d,p)
 ****
 1  2  13  14  15  16  17  18  19  20  21  22  24  25 0
 3-21G
 ****
 27  28  29  32  34  39  40  41  42  43  44  45  46  47  48  49 0
 3-21G
 ****


