%nproc=1
%NoSave
%Mem=1900MB
#P OB98/GEN NMR

erre ene a

0 1
  C     -930.418     134.955    -180.975
  O     -929.332     135.675    -181.523
  H     -931.351     135.385    -181.353
  H     -930.414     135.032    -179.885
  H     -930.364     133.906    -181.274
  P     -927.870     135.263    -181.002
  C     -927.174     133.840    -183.076
  O     -927.601     133.851    -181.719
  C     -925.989     132.891    -183.235
  O     -924.841     133.379    -182.499
  C     -926.243     131.486    -182.703
  O     -927.007     130.690    -183.593
  C     -924.820     130.981    -182.577
  O     -924.305     130.646    -183.884
  C     -924.110     132.230    -182.007
  N     -924.057     132.242    -180.545
  C     -922.932     131.652    -179.951
  O     -922.051     131.149    -180.644
  N     -922.852     131.623    -178.582
  C     -923.795     132.142    -177.862
  N     -923.667     132.073    -176.505
  C     -924.987     132.784    -178.443
  C     -925.051     132.802    -179.773
  O     -928.121     134.833    -179.479
  O     -926.794     136.280    -181.190
  H     -923.412     130.278    -183.746
  H     -927.294     134.440    -179.103
  H     -925.755     133.199    -177.803
  H     -925.900     133.252    -180.273
  H     -923.085     132.309    -182.392
  H     -924.731     130.082    -181.959
  H     -926.698     131.508    -181.707
  H     -925.713     132.873    -184.299
  H     -922.868     131.568    -176.136
  H     -926.882     134.854    -183.355
  H     -924.430     132.280    -175.880
  H     -927.989     133.510    -183.723
  P     -928.152     129.758    -182.961
  C     -930.289     131.013    -183.748
  O     -929.419     130.709    -182.665
  O     -927.596     129.436    -181.499
  O     -928.451     128.513    -183.735
  H     -927.788     128.517    -181.239
  H     -931.078     131.649    -183.404
  H     -930.705     130.107    -184.137
  H     -929.739     131.512    -184.518

 6  7  8  9  10  11  12  13  14  15  16  26  30  31  32  33  35 0
 6-311+G(2d,p)
 ****
 37  38 0
 6-311+G(2d,p)
 ****
 1  2  3  4  5  17  18  19  20  21  22  23  24  25 0
 3-21G
 ****
 27  28  29  34  36  39  40  41  42  43  44  45  46 0
 3-21G
 ****


