%nproc=1
%NoSave
%Mem=1900MB
#P OB98/GEN NMR

erre ene a

0 1
  C     -237.167     107.523    -537.312
  O     -236.448     106.551    -538.049
  H     -236.668     107.676    -536.352
  H     -238.188     107.182    -537.122
  H     -237.187     108.473    -537.852
  P     -236.991     106.148    -539.500
  C     -236.643     108.301    -540.882
  O     -237.559     107.498    -540.147
  C     -237.390     109.417    -541.603
  O     -238.325     108.869    -542.552
  C     -238.196     110.327    -540.676
  O     -237.352     111.290    -540.069
  C     -239.181     110.926    -541.667
  O     -238.525     111.948    -542.446
  C     -239.509     109.710    -542.552
  N     -244.557     109.217    -542.611
  C     -243.753     110.207    -543.148
  N     -244.395     111.232    -543.752
  N     -242.445     110.201    -543.083
  C     -241.953     109.148    -542.389
  C     -242.646     108.117    -541.799
  C     -244.085     108.103    -541.927
  O     -244.831     107.239    -541.478
  N     -241.801     107.268    -541.126
  C     -240.602     107.764    -541.344
  N     -240.636     108.916    -542.093
  O     -237.952     104.998    -539.554
  O     -235.664     105.861    -540.345
  H     -238.409     112.715    -541.858
  H     -235.421     104.920    -540.315
  H     -245.556     109.287    -542.681
  H     -239.672     107.330    -540.983
  H     -239.713     109.994    -543.589
  H     -240.044     111.387    -541.188
  H     -245.372     111.422    -543.581
  H     -238.761     109.749    -539.933
  H     -243.829     111.989    -544.108
  H     -236.654     109.997    -542.177
  H     -236.138     107.651    -541.602
  H     -235.893     108.734    -540.209
  P     -237.906     112.268    -538.919
  C     -237.173     110.844    -536.886
  O     -238.253     111.297    -537.689
  O     -239.016     113.166    -539.337
  O     -236.610     113.034    -538.391
  H     -236.412     113.866    -538.891
  H     -237.547     110.210    -536.110
  H     -236.675     111.685    -536.450
  H     -236.483     110.296    -537.493

 6  7  8  9  10  11  12  13  14  15  26  29  33  34 0
 6-311+G(2d,p)
 ****
 36  38  39  40  41 0
 6-311+G(2d,p)
 ****
 1  2  3  4  5  16  17  18  19  20  21  22  23  24  25 0
 3-21G
 ****
 27  28  30  31  32  35  37  42  43  44  45  46  47 0
 3-21G
 ****
 48  49 0
 3-21G
 ****


