%nproc=1
%NoSave
%Mem=1900MB
#P OB98/GEN NMR

erre ene a

0 1
  C      733.657     100.677    -342.212
  O      732.955     101.285    -343.317
  P      732.645     100.409    -344.625
  C      730.427      99.311    -343.763
  O      731.769      99.136    -344.194
  C      729.469      99.150    -344.943
  O      729.379      97.770    -345.350
  C      728.034      99.573    -344.652
  O      727.882     100.989    -344.651
  C      727.282      98.887    -345.782
  O      727.332      99.667    -346.991
  C      728.084      97.578    -345.948
  N      727.391      96.423    -345.373
  C      726.664      95.632    -346.250
  O      726.531      95.900    -347.452
  N      726.045      94.543    -345.703
  C      726.035      94.201    -344.376
  O      725.444      93.221    -343.949
  C      726.754      95.121    -343.482
  C      727.380      96.176    -344.016
  O      734.073      99.745    -344.931
  O      732.151     101.165    -345.819
  H      726.704      99.256    -347.611
  H      734.150      99.562    -345.887
  H      725.529      93.935    -346.331
  H      726.751      94.903    -342.418
  H      727.917      96.854    -343.363
  H      728.264      97.375    -347.010
  H      726.227      98.732    -345.551
  H      727.714      99.145    -343.694
  H      729.872      99.727    -345.794
  H      730.319     100.315    -343.339
  H      730.206      98.572    -342.978
  P      726.708     101.583    -343.730
  C      727.939     101.131    -341.468
  O      726.861     100.835    -342.326
  O      725.421     100.932    -344.422
  O      726.702     103.081    -343.691
  H      725.601     100.039    -344.778
  H      728.252     102.181    -341.550
  H      728.786     100.479    -341.726
  H      727.646     100.932    -340.430
  H      733.779     101.395    -341.429
  H      734.618     100.341    -342.541
  H      733.094      99.844    -341.847

 3  4  5  6  7  8  9  10  11  12  13  23  28  29  30  31  32 0
 6-311+G(2d,p)
 ****
 33  34 0
 6-311+G(2d,p)
 ****
 1  2  14  15  16  17  18  19  20  21  22  24  25  26 0
 3-21G
 ****
 27  35  36  37  38  39  40  41  42  43  44  45 0
 3-21G
 ****


