%nproc=1
%NoSave
%Mem=1900MB
#P OB98/GEN NMR

erre ene a

0 1
  C     -675.459    -353.973     168.166
  O     -674.651    -355.026     167.616
  P     -675.171    -355.765     166.290
  C     -673.084    -355.375     164.792
  O     -673.905    -356.311     165.476
  C     -671.841    -356.062     164.221
  O     -670.812    -356.234     165.221
  C     -672.116    -357.465     163.686
  O     -672.651    -357.426     162.370
  C     -670.714    -358.057     163.664
  O     -670.009    -357.589     162.498
  C     -670.090    -357.459     164.933
  N     -667.545    -360.865     167.791
  C     -667.200    -360.193     166.669
  N     -667.944    -359.318     165.952
  C     -669.148    -359.148     166.518
  C     -669.641    -359.763     167.660
  C     -668.784    -360.665     168.304
  N     -669.139    -361.345     169.448
  N     -670.929    -359.347     167.921
  C     -671.211    -358.478     166.965
  N     -670.165    -358.329     166.090
  O     -675.705    -354.557     165.386
  O     -676.248    -356.767     166.553
  H     -669.090    -357.909     162.572
  H     -676.476    -354.846     164.869
  H     -666.205    -360.385     166.295
  H     -672.137    -357.939     166.872
  H     -669.033    -357.191     164.792
  H     -670.714    -359.147     163.620
  H     -672.747    -358.034     164.373
  H     -671.433    -355.436     163.418
  H     -672.781    -354.574     165.475
  H     -668.462    -361.948     169.879
  H     -670.046    -361.175     169.857
  H     -673.666    -354.900     163.997
  P     -673.029    -358.827     161.681
  C     -675.588    -358.403     161.658
  O     -674.407    -358.577     160.907
  O     -673.437    -359.738     162.932
  O     -671.925    -359.433     160.887
  H     -673.230    -360.683     162.745
  H     -676.351    -357.952     161.017
  H     -675.420    -357.747     162.514
  H     -675.955    -359.376     162.014
  H     -674.985    -353.580     169.041
  H     -676.422    -354.361     168.425
  H     -675.571    -353.194     167.441

 3  4  5  6  7  8  9  10  11  12  22  25  29  30  31  32 0
 6-311+G(2d,p)
 ****
 33  36  37 0
 6-311+G(2d,p)
 ****
 1  2  13  14  15  16  17  18  19  20  21  23  24  26 0
 3-21G
 ****
 27  28  34  35  38  39  40  41  42  43  44  45  46  47  48 0
 3-21G
 ****


