%nproc=1
%NoSave
%Mem=1900MB
#P OB98/GEN NMR

erre ene a

0 1
  C     -273.088    -281.261     201.389
  O     -274.234    -282.071     201.543
  H     -273.386    -280.309     200.940
  H     -272.368    -281.751     200.729
  H     -272.628    -281.065     202.361
  P     -274.013    -283.525     202.185
  C     -273.763    -285.174     200.196
  O     -274.641    -284.576     201.140
  C     -274.461    -285.331     198.845
  O     -275.336    -286.495     198.900
  C     -275.324    -284.124     198.448
  O     -275.210    -283.922     197.034
  C     -276.734    -284.591     198.764
  O     -277.717    -283.881     198.017
  C     -276.626    -286.071     198.420
  N     -280.984    -288.396     197.446
  C     -280.112    -287.733     196.604
  N     -280.454    -287.675     195.297
  N     -279.002    -287.173     197.006
  C     -278.773    -287.329     198.333
  C     -279.559    -287.951     199.274
  C     -280.798    -288.546     198.818
  O     -281.621    -289.127     199.521
  N     -278.997    -287.864     200.524
  C     -277.872    -287.193     200.336
  N     -277.693    -286.849     199.023
  O     -275.048    -283.556     203.406
  O     -272.620    -283.831     202.621
  H     -277.527    -284.015     197.065
  H     -274.718    -284.125     204.127
  H     -281.829    -288.798     197.085
  H     -277.163    -286.931     201.111
  H     -276.672    -286.255     197.342
  H     -276.946    -284.448     199.833
  H     -281.274    -288.109     194.909
  H     -275.058    -283.204     198.973
  H     -279.820    -287.205     194.660
  H     -273.704    -285.544     198.082
  H     -273.457    -286.158     200.565
  H     -272.874    -284.542     200.082
  P     -274.147    -282.834     196.523
  C     -275.678    -280.877     195.766
  O     -274.831    -281.946     195.373
  O     -273.078    -283.723     195.722
  O     -273.490    -282.066     197.624
  H     -272.253    -283.778     196.229
  H     -276.056    -280.383     194.895
  H     -275.122    -280.181     196.359
  H     -276.495    -281.262     196.340

 6  7  8  9  10  11  12  13  14  15  26  29  33  34 0
 6-311+G(2d,p)
 ****
 36  38  39  40  41 0
 6-311+G(2d,p)
 ****
 1  2  3  4  5  16  17  18  19  20  21  22  23  24  25 0
 3-21G
 ****
 27  28  30  31  32  35  37  42  43  44  45  46  47 0
 3-21G
 ****
 48  49 0
 3-21G
 ****


