%nproc=1
%NoSave
%Mem=1900MB
#P OB98/GEN NMR

erre ene a

0 1
  C     -852.178    1063.073     120.095
  O     -851.608    1061.884     119.592
  H     -851.461    1063.884     119.970
  H     -852.396    1062.956     121.167
  H     -853.097    1063.313     119.559
  P     -852.523    1060.560     119.679
  C     -853.503    1061.048     117.307
  O     -852.836    1060.141     118.164
  C     -853.224    1060.733     115.828
  O     -851.886    1061.216     115.498
  C     -853.234    1059.211     115.505
  O     -853.633    1059.063     114.148
  C     -851.776    1058.871     115.667
  O     -851.505    1057.590     115.107
  C     -851.135    1060.076     115.002
  N     -846.403    1058.618     113.766
  C     -847.589    1058.316     113.233
  N     -848.817    1058.758     113.600
  C     -848.721    1059.607     114.641
  C     -847.572    1060.017     115.286
  C     -846.357    1059.490     114.820
  N     -845.128    1059.773     115.367
  N     -847.873    1060.895     116.324
  C     -849.186    1061.022     116.277
  N     -849.730    1060.254     115.292
  O     -853.929    1061.116     120.206
  O     -851.990    1059.468     120.543
  H     -850.574    1057.335     115.240
  H     -853.980    1061.021     121.171
  H     -847.575    1057.630     112.379
  H     -849.783    1061.651     116.957
  H     -851.260    1060.054     113.913
  H     -851.495    1058.801     116.724
  H     -853.919    1058.642     116.168
  H     -853.938    1061.290     115.210
  H     -853.159    1062.071     117.538
  H     -854.589    1060.995     117.491
  H     -844.298    1059.350     114.985
  H     -845.090    1060.414     116.154
  P     -854.794    1057.999     113.782
  C     -856.472    1059.551     112.498
  O     -855.531    1058.477     112.444
  O     -855.906    1058.320     114.890
  O     -854.395    1056.566     113.813
  H     -856.419    1057.518     115.078
  H     -856.862    1059.733     111.518
  H     -855.986    1060.434     112.858
  H     -857.273    1059.291     113.158

 6  7  8  9  10  11  12  13  14  15  25  28  32  33  34  35 0
 6-311+G(2d,p)
 ****
 36  37  40 0
 6-311+G(2d,p)
 ****
 1  2  3  4  5  16  17  18  19  20  21  22  23  24 0
 3-21G
 ****
 26  27  29  30  31  38  39 41  42  43  44  45  46  47  48 0
 3-21G
 ****


