%nproc=1
%NoSave
%Mem=1900MB
#P OB98/GEN NMR

erre ene a

0 1
  C     -238.705    1337.796    -108.216
  O     -237.866    1336.949    -108.984
  P     -238.587    1335.663    -109.649
  C     -238.042    1336.090    -112.137
  O     -239.038    1336.055    -111.134
  C     -238.590    1335.695    -113.501
  O     -238.995    1334.292    -113.512
  C     -239.819    1336.502    -113.951
  O     -239.747    1336.670    -115.366
  C     -240.963    1335.600    -113.592
  O     -242.153    1335.963    -114.299
  C     -240.365    1334.246    -113.987
  N     -243.637    1330.518    -115.029
  C     -243.212    1331.582    -115.795
  N     -243.722    1331.628    -117.067
  N     -242.403    1332.506    -115.373
  C     -241.961    1332.306    -114.113
  C     -242.281    1331.284    -113.236
  C     -243.206    1330.283    -113.725
  O     -243.628    1329.333    -113.061
  N     -241.614    1331.409    -112.045
  C     -240.930    1332.542    -112.193
  N     -241.062    1333.107    -113.435
  O     -239.976    1335.584    -108.833
  O     -237.806    1334.392    -109.518
  H     -242.857    1335.335    -114.055
  H     -239.925    1334.896    -108.146
  H     -244.288    1329.829    -115.386
  H     -240.331    1333.004    -111.426
  H     -240.350    1334.099    -115.068
  H     -241.194    1335.616    -112.529
  H     -244.321    1330.926    -117.458
  H     -239.906    1337.496    -113.461
  H     -243.388    1332.382    -117.674
  H     -237.778    1335.823    -114.250
  H     -237.226    1335.394    -111.860
  H     -237.573    1337.088    -112.147
  P     -239.173    1338.040    -115.948
  C     -237.037    1336.923    -116.896
  O     -237.587    1337.890    -116.034
  O     -239.405    1339.058    -114.711
  O     -239.851    1338.510    -117.179
  H     -239.684    1339.932    -115.077
  H     -236.032    1337.232    -117.164
  H     -237.653    1336.779    -117.767
  H     -236.952    1335.973    -116.338
  H     -238.130    1338.609    -107.826
  H     -239.130    1337.239    -107.407
  H     -239.489    1338.179    -108.836

 3  4  5  6  7  8  9  10  11  12  23  26  30  31 0
 6-311+G(2d,p)
 ****
 33  35  36  37  38 0
 6-311+G(2d,p)
 ****
 1  2  13  14  15  16  17  18  19  20  21  22  24  25 0
 3-21G
 ****
 27  28  29  32  34  39  40  41  42  43  44  45  46  47  48  49 0
 3-21G
 ****


