%nproc=1
%NoSave
%Mem=1900MB
#P OB98/GEN NMR

erre ene a

0 1
  C     -552.601     110.626     177.796
  O     -553.546     111.687     177.702
  H     -553.145     109.681     177.875
  H     -551.968     110.744     178.682
  H     -551.981     110.600     176.897
  P     -553.001     113.193     177.838
  C     -555.476     113.933     177.703
  O     -554.240     114.042     178.409
  C     -556.664     114.234     178.626
  O     -556.881     113.135     179.533
  C     -556.457     115.447     179.521
  O     -556.437     116.679     178.829
  C     -557.470     115.222     180.633
  O     -558.770     115.711     180.311
  C     -557.500     113.672     180.721
  N     -556.860     113.183     181.934
  C     -557.706     112.973     183.020
  O     -558.917     113.203     182.999
  N     -557.108     112.526     184.174
  C     -555.761     112.328     184.342
  O     -555.277     111.961     185.415
  C     -554.916     112.589     183.168
  C     -555.494     113.000     182.034
  O     -552.383     113.772     176.600
  O     -552.000     113.126     179.084
  H     -559.378     115.365     181.001
  H     -551.404     113.914     179.104
  H     -557.705     112.356     184.961
  H     -553.845     112.449     183.271
  H     -554.893     113.203     181.148
  H     -558.532     113.313     180.720
  H     -557.161     115.703     181.556
  H     -555.465     115.362     179.989
  H     -557.561     114.353     178.009
  H     -555.557     112.903     177.343
  H     -555.475     114.612     176.847
  P     -555.608     117.952     179.309
  C     -557.376     119.352     178.008
  O     -556.530     119.263     179.157
  O     -554.174     118.034     178.852
  O     -555.583     117.737     180.908
  H     -554.721     118.070     181.243
  H     -557.926     120.269     178.040
  H     -558.058     118.527     178.002
  H     -556.777     119.326     177.121

 6  7  8  9  10  11  12  13  14  15  16  26  31  32  33  34  35 0
 6-311+G(2d,p)
 ****
 36  37 0
 6-311+G(2d,p)
 ****
 1  2  3  4  5  17  18  19  20  21  22  23  24  25 0
 3-21G
 ****
 27  28  29  30  38  39  40  41  42  43  44  45 0
 3-21G
 ****


