%nproc=1
%NoSave
%Mem=1900MB
#P OB98/GEN NMR

erre ene a

0 1
  C      106.710     387.706    -767.351
  O      107.159     386.530    -768.004
  H      105.712     387.550    -766.932
  H      107.404     387.936    -766.529
  H      106.700     388.549    -768.049
  P      106.294     386.042    -769.260
  C      105.474     383.861    -768.108
  O      106.232     384.434    -769.168
  C      106.147     382.579    -767.621
  O      106.498     381.750    -768.744
  C      107.444     382.792    -766.847
  O      107.204     383.161    -765.501
  C      108.066     381.407    -766.948
  O      107.448     380.536    -765.979
  C      107.682     380.981    -768.370
  N      112.523     379.937    -769.687
  C      111.728     379.478    -768.684
  N      110.449     379.785    -768.412
  C      109.973     380.655    -769.318
  C      110.642     381.204    -770.401
  C      111.981     380.817    -770.566
  N      112.791     381.347    -771.560
  N      109.821     382.073    -771.093
  C      108.686     382.067    -770.422
  N      108.725     381.224    -769.348
  O      107.279     386.314    -770.500
  O      104.984     386.728    -769.436
  H      107.781     379.635    -766.163
  H      107.054     387.167    -770.911
  H      112.207     378.760    -768.012
  H      107.812     382.660    -770.678
  H      107.408     379.918    -768.428
  H      109.144     381.406    -766.748
  H      108.109     383.515    -767.348
  H      105.418     382.022    -767.015
  H      104.464     383.628    -768.468
  H      113.779     381.363    -771.311
  H      112.423     382.178    -772.007
  H      105.405     384.589    -767.287
  P      108.320     384.033    -764.744
  C      109.014     382.089    -763.188
  O      108.485     383.405    -763.279
  O      107.577     385.420    -764.497
  O      109.600     384.236    -765.517
  H      108.097     386.160    -764.879
  H      109.069     381.797    -762.160
  H      109.994     382.068    -763.618
  H      108.377     381.411    -763.717

 6  7  8  9  10  11  12  13  14  15  25  28  32  33  34  35 0
 6-311+G(2d,p)
 ****
 36  39  40 0
 6-311+G(2d,p)
 ****
 1  2  3  4  5  16  17  18  19  20  21  22  23  24 0
 3-21G
 ****
 26  27  29  30  31  37  38  41  42  43  44  45  46  47  48 0
 3-21G
 ****


