%nproc=1
%NoSave
%Mem=1900MB
#P OB98/GEN NMR

erre ene a

0 1
  C     -134.618      52.148       4.373
  O     -133.517      51.721       3.589
  P     -133.052      50.191       3.724
  C     -130.524      50.287       4.447
  O     -131.482      50.182       3.405
  C     -129.107      50.235       3.869
  O     -129.022      49.196       2.871
  C     -128.662      51.511       3.166
  O     -128.297      52.524       4.090
  C     -127.517      50.990       2.306
  O     -126.322      50.858       3.094
  C     -128.038      49.599       1.894
  N     -128.592      49.568       0.542
  C     -127.709      49.222      -0.476
  O     -126.526      48.950      -0.278
  N     -128.233      49.215      -1.743
  C     -129.502      49.576      -2.090
  O     -129.906      49.594      -3.245
  C     -130.379      49.964      -0.975
  C     -129.892      49.943       0.268
  O     -133.736      49.560       2.423
  O     -133.455      49.567       5.017
  H     -133.854      50.222       1.719
  H     -126.114      51.750       3.432
  H     -127.618      48.944      -2.497
  H     -131.391      50.266      -1.213
  H     -130.521      50.235       1.100
  H     -127.230      48.859       1.952
  H     -127.285      51.653       1.467
  H     -129.468      51.880       2.518
  H     -128.414      49.984       4.683
  H     -130.665      49.458       5.145
  H     -130.684      51.229       4.984
  P     -128.707      54.032       3.704
  C     -126.604      55.474       4.277
  O     -127.865      54.986       4.678
  O     -130.200      54.103       4.273
  O     -128.585      54.331       2.245
  H     -130.294      53.683       5.144
  H     -126.362      56.355       4.878
  H     -126.600      55.756       3.221
  H     -125.842      54.708       4.454
  H     -134.813      53.182       4.181
  H     -134.390      52.015       5.410
  H     -135.482      51.569       4.120

 3  4  5  6  7  8  9  10  11  12  13  24  28  29  30  31  32 0
 6-311+G(2d,p)
 ****
 33  34 0
 6-311+G(2d,p)
 ****
 1  2  14  15  16  17  18  19  20  21  22  23  25  26  27 0
 3-21G
 ****
 35  36  37  38  39  40  41  42  43  44  45 0
 3-21G
 ****


