%nproc=1
%NoSave
%Mem=1900MB
#P OB98/GEN NMR

erre ene a

0 1
  C       82.659     494.227    -315.873
  O       83.076     492.932    -315.468
  P       83.888     492.046    -316.535
  C       81.974     490.547    -317.443
  O       83.131     490.636    -316.622
  C       80.711     490.304    -316.608
  O       80.798     488.987    -316.002
  C       80.497     491.327    -315.491
  O       79.087     491.564    -315.385
  C       80.969     490.596    -314.245
  O       80.363     491.123    -313.067
  C       80.586     489.150    -314.586
  N       81.358     488.179    -313.814
  C       81.035     488.043    -312.461
  O       80.193     488.781    -311.953
  N       81.714     487.113    -311.709
  C       82.702     486.463    -312.233
  N       83.340     485.550    -311.446
  C       83.153     486.663    -313.628
  C       82.429     487.508    -314.356
  O       85.238     491.695    -315.744
  O       84.153     492.729    -317.835
  H       80.766     490.679    -312.286
  H       85.990     491.614    -316.362
  H       84.004     486.116    -314.004
  H       82.677     487.705    -315.398
  H       79.515     488.976    -314.387
  H       82.058     490.692    -314.150
  H       81.015     492.272    -315.671
  H       79.852     490.289    -317.288
  H       83.019     485.442    -310.492
  H       82.087     489.707    -318.135
  H       84.120     484.992    -311.776
  H       81.873     491.467    -318.034
  P       78.491     492.852    -316.138
  C       77.731     494.234    -314.105
  O       77.332     493.392    -315.170
  O       77.641     492.168    -317.311
  O       79.445     493.861    -316.680
  H       77.268     492.861    -317.887
  H       76.835     494.639    -313.615
  H       78.335     495.068    -314.482
  H       78.303     493.661    -313.366
  H       82.134     494.700    -315.070
  H       82.013     494.144    -316.722
  H       83.516     494.813    -316.133

 3  4  5  6  7  8  9  10  11  12  13  21  23  27  28  29  30  32 0
 6-311+G(2d,p)
 ****
 34  35 0
 6-311+G(2d,p)
 ****
 1  2  14  15  16  17  18  19  20  22  24  25  26 0
 3-21G
 ****
 31  33  36  37  38  39  40  41  42  43  44  45  46 0
 3-21G
 ****


