%nproc=1
%NoSave
%Mem=1900MB
#P OB98/GEN NMR

erre ene a

0 1
  C      -65.302     -12.444    -203.160
  O      -65.679     -11.731    -204.319
  H      -65.338     -13.514    -203.383
  H      -65.996     -12.235    -202.343
  H      -64.284     -12.186    -202.858
  P      -65.551     -10.133    -204.316
  C      -67.757      -8.843    -203.977
  O      -66.705      -9.573    -203.355
  C      -68.846      -9.805    -204.451
  O      -69.302     -10.618    -203.346
  C      -70.092      -9.110    -204.984
  O      -69.878      -8.580    -206.277
  C      -71.104     -10.240    -204.908
  O      -70.994     -11.110    -206.042
  C      -70.676     -10.971    -203.616
  N      -71.540     -10.633    -202.484
  C      -72.605     -11.494    -202.245
  O      -72.834     -12.497    -202.920
  N      -73.451     -11.129    -201.231
  C      -73.410      -9.947    -200.548
  O      -74.322      -9.552    -199.828
  C      -72.229      -9.106    -200.800
  C      -71.367      -9.476    -201.750
  O      -65.475      -9.489    -205.660
  O      -64.219      -9.865    -203.464
  H      -63.484      -9.660    -204.075
  H      -71.152     -10.547    -206.827
  H      -74.252     -11.728    -201.078
  H      -72.122      -8.193    -200.225
  H      -70.506      -8.855    -201.976
  H      -70.703     -12.058    -203.763
  H      -72.127      -9.860    -204.876
  H      -70.395      -8.314    -204.294
  H      -68.414     -10.470    -205.209
  H      -67.349      -8.304    -204.839
  H      -68.162      -8.120    -203.262
  P      -70.911      -7.526    -206.900
  C      -72.460      -8.158    -208.853
  O      -72.173      -8.336    -207.469
  O      -70.319      -6.539    -207.851
  O      -71.523      -6.779    -205.620
  H      -71.464      -5.815    -205.761
  H      -73.316      -8.743    -209.118
  H      -71.619      -8.473    -209.435
  H      -72.660      -7.125    -209.046

 6  7  8  9  10  11  12  13  14  15  16  27  31  32  33  34  35 0
 6-311+G(2d,p)
 ****
 36  37 0
 6-311+G(2d,p)
 ****
 1  2  3  4  5  17  18  19  20  21  22  23  24  25 0
 3-21G
 ****
 26  28  29  30  38  39  40  41  42  43  44  45 0
 3-21G
 ****


