%nproc=1
%NoSave
%Mem=1900MB
#P OB98/GEN NMR

erre ene a

0 1
  C       43.555     -42.648      69.956
  O       42.580     -42.123      69.054
  P       41.748     -40.819      69.464
  C       43.051     -39.290      67.835
  O       42.631     -39.513      69.176
  C       43.933     -38.040      67.763
  O       45.262     -38.299      68.274
  C       44.156     -37.554      66.336
  O       43.041     -36.999      65.672
  C       45.387     -36.676      66.483
  O       45.047     -35.365      66.931
  C       46.181     -37.434      67.573
  N       47.309     -38.189      67.026
  C       48.291     -37.441      66.386
  O       48.222     -36.224      66.233
  N       49.351     -38.151      65.889
  C       49.502     -39.506      65.938
  O       50.462     -40.093      65.456
  C       48.420     -40.244      66.606
  C       47.389     -39.565      67.112
  O       41.093     -40.862      70.803
  O       40.633     -40.736      68.306
  H       45.876     -34.854      66.993
  H       39.788     -40.480      68.724
  H       50.078     -37.625      65.428
  H       48.504     -41.321      66.660
  H       46.581     -40.090      67.609
  H       46.579     -36.731      68.315
  H       45.916     -36.562      65.532
  H       44.458     -38.420      65.730
  H       43.487     -37.263      68.385
  H       42.179     -39.176      67.188
  H       43.587     -40.176      67.478
  P       42.118     -37.830      64.658
  C       40.065     -37.814      66.241
  O       40.988     -38.587      65.506
  O       42.805     -38.608      63.587
  O       41.270     -36.652      63.966
  H       41.083     -36.908      63.043
  H       39.385     -38.490      66.766
  H       39.479     -37.179      65.572
  H       40.585     -37.198      66.979
  H       44.011     -43.514      69.524
  H       43.081     -42.917      70.877
  H       44.303     -41.906      70.143

 3  4  5  6  7  8  9  10  11  12  13  23  28  29  30  31  32 0
 6-311+G(2d,p)
 ****
 33  34 0
 6-311+G(2d,p)
 ****
 1  2  14  15  16  17  18  19  20  21  22  24  25  26  27 0
 3-21G
 ****
 35  36  37  38  39  40  41  42  43  44  45 0
 3-21G
 ****


