%nproc=1
%NoSave
%Mem=1900MB
#P OB98/GEN NMR

erre ene a

0 1
  C      -86.292    -348.629      74.567
  O      -84.994    -348.876      74.053
  P      -83.920    -347.686      74.182
  C      -81.888    -349.287      74.534
  O      -82.715    -348.266      75.065
  C      -81.463    -350.241      75.651
  O      -82.622    -350.844      76.262
  C      -80.577    -351.392      75.192
  O      -79.232    -350.968      75.079
  C      -80.811    -352.415      76.297
  O      -80.001    -352.115      77.453
  C      -82.302    -352.220      76.605
  N      -84.536    -356.754      76.709
  C      -83.566    -356.222      77.538
  N      -83.170    -356.995      78.572
  N      -83.039    -355.040      77.374
  C      -83.521    -354.384      76.291
  C      -84.466    -354.809      75.387
  C      -85.081    -356.099      75.615
  O      -86.011    -356.573      74.969
  N      -84.683    -353.876      74.408
  C      -83.891    -352.875      74.738
  N      -83.181    -353.123      75.884
  O      -84.648    -346.647      75.155
  O      -83.496    -347.068      72.889
  H      -80.045    -352.860      78.077
  H      -85.062    -345.925      74.640
  H      -84.918    -357.665      76.897
  H      -83.813    -351.947      74.194
  H      -82.522    -352.347      77.672
  H      -80.543    -353.428      75.985
  H      -83.514    -357.925      78.749
  H      -80.937    -351.793      74.238
  H      -82.456    -356.623      79.189
  H      -80.953    -349.649      76.421
  H      -80.996    -348.836      74.088
  H      -82.437    -349.827      73.754
  P      -78.595    -350.914      73.607
  C      -77.183    -348.743      73.783
  O      -78.336    -349.373      73.258
  O      -79.822    -351.320      72.659
  O      -77.427    -351.820      73.404
  H      -79.491    -351.849      71.910
  H      -76.868    -347.954      73.093
  H      -76.360    -349.448      73.918
  H      -77.428    -348.289      74.748
  H      -86.905    -349.494      74.419
  H      -86.725    -347.794      74.057
  H      -86.226    -348.413      75.613

 3  4  5  6  7  8  9  10  11  12  23  26  30  31 0
 6-311+G(2d,p)
 ****
 33  35  36  37  38 0
 6-311+G(2d,p)
 ****
 1  2  13  14  15  16  17  18  19  20  21  22  24  25 0
 3-21G
 ****
 27  28  29  32  34  39  40  41  42  43  44  45  46  47  48  49 0
 3-21G
 ****


