%nproc=1
%NoSave
%Mem=1900MB
#P OB98/GEN NMR

erre ene a

0 1
  C      708.945    -777.794    -890.020
  O      708.462    -777.179    -891.240
  P      709.538    -776.857    -892.380
  C      708.528    -778.240    -894.330
  O      709.585    -778.095    -893.380
  C      708.995    -779.073    -895.530
  O      710.283    -778.583    -896.050
  C      709.217    -780.554    -895.220
  O      708.004    -781.290    -895.300
  C      710.135    -780.980    -896.360
  O      709.344    -781.195    -897.570
  C      711.021    -779.745    -896.520
  N      716.036    -780.330    -897.020
  C      715.047    -780.261    -897.990
  N      715.450    -780.353    -899.260
  N      713.784    -780.110    -897.710
  C      713.516    -780.016    -896.400
  C      714.409    -780.090    -895.330
  C      715.810    -780.290    -895.660
  O      716.746    -780.382    -894.830
  N      713.765    -779.973    -894.130
  C      712.511    -779.814    -894.460
  N      712.290    -779.854    -895.800
  O      710.941    -776.970    -891.600
  O      709.370    -775.513    -893.000
  H      710.017    -781.334    -898.290
  H      711.588    -776.401    -892.020
  H      716.999    -780.468    -897.270
  H      711.706    -779.673    -893.700
  H      711.285    -779.532    -897.590
  H      710.654    -781.909    -896.130
  H      716.428    -780.407    -899.560
  H      709.730    -780.671    -894.250
  H      714.754    -780.249    -900.000
  H      708.253    -778.956    -896.330
  H      708.181    -777.267    -894.690
  H      707.664    -778.701    -893.850
  P      707.730    -782.379    -894.150
  C      705.422    -781.585    -893.250
  O      706.812    -781.674    -893.040
  O      709.159    -782.541    -893.450
  O      707.225    -783.707    -894.660
  H      709.288    -783.468    -893.120
  H      704.943    -781.219    -892.320
  H      704.991    -782.575    -893.500
  H      705.213    -780.868    -894.070
  H      708.125    -777.952    -889.351
  H      709.664    -777.151    -889.557
  H      709.403    -778.733    -890.251

 3  4  5  6  7  8  9  10  11  12  23  26  30  31 0
 6-311+G(2d,p)
 ****
 33  35  36  37  38 0
 6-311+G(2d,p)
 ****
 1  2  13  14  15  16  17  18  19  20  21  22  24  25 0
 3-21G
 ****
 27  28  29  32  34  39  40  41  42  43  44  45  46  47  48  49 0
 3-21G
 ****


