%nproc=1
%NoSave
%Mem=1900MB
#P OB98/GEN NMR

erre ene a

0 1
  C      -88.474    -116.620    -199.511
  O      -89.170    -115.427    -199.216
  H      -88.506    -116.788    -200.591
  H      -88.951    -117.467    -199.010
  H      -87.430    -116.541    -199.195
  P      -89.206    -114.975    -197.676
  C      -87.486    -113.049    -197.982
  O      -87.781    -114.300    -197.373
  C      -86.276    -112.416    -197.300
  O      -85.950    -111.170    -197.957
  C      -86.498    -112.062    -195.835
  O      -86.381    -113.194    -194.991
  C      -85.405    -111.025    -195.612
  O      -84.142    -111.642    -195.331
  C      -85.346    -110.307    -196.967
  N      -84.661    -105.261    -196.795
  C      -83.788    -106.288    -196.880
  N      -84.055    -107.611    -196.941
  C      -85.380    -107.826    -196.915
  C      -86.388    -106.881    -196.822
  C      -85.985    -105.537    -196.763
  N      -86.871    -104.494    -196.640
  N      -87.624    -107.494    -196.775
  C      -87.368    -108.785    -196.848
  N      -86.028    -109.030    -196.939
  O      -89.138    -116.370    -196.893
  O      -90.393    -114.165    -197.278
  H      -83.995    -112.308    -196.029
  H      -90.041    -116.664    -196.670
  H      -82.737    -106.012    -196.899
  H      -88.112    -109.572    -196.831
  H      -84.315    -110.118    -197.291
  H      -85.642    -110.372    -194.771
  H      -87.474    -111.581    -195.704
  H      -85.420    -113.094    -197.411
  H      -88.348    -112.382    -197.876
  H      -87.288    -113.210    -199.047
  H      -86.510    -103.556    -196.580
  H      -87.853    -104.696    -196.508
  P      -86.643    -113.011    -193.423
  C      -89.227    -113.267    -193.562
  O      -88.128    -112.429    -193.242
  O      -85.702    -111.776    -193.036
  O      -86.350    -114.217    -192.595
  H      -84.879    -112.092    -192.618
  H      -90.141    -112.738    -193.389
  H      -89.200    -114.142    -192.946
  H      -89.169    -113.553    -194.591

 6  7  8  9  10  11  12  13  14  15  25  28  32  33  34  35 0
 6-311+G(2d,p)
 ****
 36  37  40 0
 6-311+G(2d,p)
 ****
 1  2  3  4  5  16  17  18  19  20  21  22  23  24 0
 3-21G
 ****
 26  27  29  30  31  38  39 41  42  43  44  45  46  47  48 0
 3-21G
 ****


