%nproc=1
%NoSave
%Mem=1900MB
#P OB98/GEN NMR

erre ene a

0 1
  C      -78.083     505.282     -58.465
  O      -77.782     504.062     -59.154
  P      -78.077     502.615     -58.534
  C      -79.304     501.893     -60.686
  O      -79.351     501.974     -59.264
  C      -79.605     500.476     -61.181
  O      -78.593     499.555     -60.737
  C      -80.924     499.894     -60.690
  O      -82.024     500.452     -61.390
  C      -80.700     498.404     -60.939
  O      -80.963     498.063     -62.306
  C      -79.199     498.254     -60.614
  N      -78.967     497.678     -59.297
  C      -79.180     496.302     -59.172
  O      -79.604     495.646     -60.122
  N      -78.934     495.708     -57.955
  C      -78.579     496.434     -56.943
  N      -78.342     495.790     -55.771
  C      -78.429     497.900     -57.011
  C      -78.633     498.447     -58.209
  O      -78.161     502.599     -57.039
  O      -76.863     501.692     -59.028
  H      -81.910     498.247     -62.459
  H      -76.690     501.007     -58.359
  H      -78.158     498.472     -56.137
  H      -78.534     499.517     -58.350
  H      -78.710     497.623     -61.366
  H      -81.343     497.775     -60.317
  H      -81.031     500.071     -59.614
  H      -79.582     500.494     -62.281
  H      -78.448     494.784     -55.757
  H      -78.297     502.184     -61.012
  H      -78.060     496.259     -54.923
  H      -80.025     502.603     -61.103
  P      -82.788     501.721     -60.788
  C      -83.116     502.998     -62.993
  O      -82.465     502.974     -61.735
  O      -82.594     501.962     -59.329
  O      -84.330     501.426     -61.114
  H      -84.885     501.820     -60.417
  H      -83.147     504.028     -63.351
  H      -84.138     502.615     -62.916
  H      -82.551     502.389     -63.705
  H      -77.799     506.115     -59.074
  H      -77.542     505.313     -57.542
  H      -79.133     505.329     -58.264

 3  4  5  6  7  8  9  10  11  12  13  23  27  28  29  30  32 0
 6-311+G(2d,p)
 ****
 34  35 0
 6-311+G(2d,p)
 ****
 1  2  14  15  16  17  18  19  20  21  22  24  25  26 0
 3-21G
 ****
 31  33  36  37  38  39  40  41  42  43  44  45  46 0
 3-21G
 ****


