%nproc=1
%NoSave
%Mem=1900MB
#P OB98/GEN NMR

erre ene a

0 1
  C      355.013     264.549     145.437
  O      354.618     265.767     146.049
  P      355.246     267.125     145.456
  C      357.031     267.541     147.309
  O      356.766     267.191     145.956
  C      358.534     267.631     147.549
  O      359.158     266.359     147.277
  C      359.258     268.635     146.660
  O      359.035     269.965     147.102
  C      360.696     268.151     146.806
  O      361.249     268.609     148.052
  C      360.516     266.623     146.831
  N      363.563     263.561     144.084
  C      363.654     264.016     145.355
  N      362.816     264.842     146.008
  C      361.788     265.202     145.216
  C      361.578     264.836     143.897
  C      362.523     263.969     143.325
  N      362.429     263.509     142.028
  N      360.429     265.422     143.405
  C      359.947     266.120     144.412
  N      360.726     266.008     145.532
  O      354.524     268.262     146.319
  O      355.044     267.319     143.987
  H      361.327     269.583     147.992
  H      354.375     269.066     145.781
  H      364.513     263.665     145.921
  H      359.046     266.711     144.379
  H      361.192     266.133     147.543
  H      361.352     268.505     146.005
  H      358.930     268.530     145.617
  H      358.696     267.874     148.608
  H      356.610     266.779     147.972
  H      363.225     263.014     141.650
  H      361.735     263.931     141.421
  H      356.540     268.497     147.527
  P      358.935     271.103     145.974
  C      361.443     271.532     146.340
  O      360.435     271.206     145.401
  O      358.815     272.429     146.867
  O      357.861     270.898     144.962
  H      359.484     272.458     147.568
  H      362.407     271.519     145.831
  H      361.460     270.799     147.152
  H      361.273     272.532     146.743
  H      354.526     263.731     145.924
  H      356.073     264.435     145.522
  H      354.738     264.564     144.403

 3  4  5  6  7  8  9  10  11  12  22  25  29  30  31  32 0
 6-311+G(2d,p)
 ****
 33  36  37 0
 6-311+G(2d,p)
 ****
 1  2  13  14  15  16  17  18  19  20  21  23  24  26 0
 3-21G
 ****
 27  28  34  35  38  39  40  41  42  43  44  45  46  47  48 0
 3-21G
 ****


