%nproc=1
%NoSave
%Mem=1900MB
#P OB98/GEN NMR

erre ene a

0 1
  C       27.295    -163.452    -277.213
  O       25.982    -163.604    -276.714
  H       27.570    -164.357    -277.762
  H       28.001    -163.313    -276.390
  H       27.344    -162.596    -277.892
  P       25.432    -162.414    -275.784
  C       22.954    -162.786    -276.515
  O       23.917    -162.852    -275.473
  C       21.695    -163.543    -276.102
  O       21.991    -164.940    -275.885
  C       21.075    -163.053    -274.798
  O       20.315    -161.865    -274.959
  C       20.197    -164.241    -274.450
  O       19.022    -164.234    -275.281
  C       21.130    -165.419    -274.815
  N       21.932    -165.889    -273.684
  C       21.299    -166.753    -272.783
  O       20.125    -167.081    -272.948
  N       22.004    -167.206    -271.693
  C       23.236    -166.836    -271.521
  N       23.882    -167.301    -270.416
  C       23.945    -165.940    -272.452
  C       23.242    -165.509    -273.497
  O       25.239    -161.196    -276.804
  O       26.253    -162.088    -274.583
  H       18.695    -163.315    -275.301
  H       24.782    -160.447    -276.350
  H       24.968    -165.651    -272.260
  H       23.698    -164.845    -274.224
  H       20.557    -166.264    -275.212
  H       19.857    -164.233    -273.413
  H       21.829    -162.931    -274.012
  H       20.979    -163.486    -276.931
  H       23.349    -167.863    -269.764
  H       23.388    -163.236    -277.415
  H       24.770    -166.928    -270.106
  H       22.698    -161.744    -276.725
  P       20.427    -160.748    -273.811
  C       20.066    -159.037    -275.732
  O       19.764    -159.408    -274.394
  O       21.989    -160.405    -273.791
  O       19.929    -161.174    -272.465
  H       22.307    -160.261    -272.880
  H       19.554    -158.129    -275.975
  H       19.750    -159.813    -276.397
  H       21.121    -158.889    -275.832

 6  7  8  9  10  11  12  13  14  15  16  26  30  31  32  33  35 0
 6-311+G(2d,p)
 ****
 37  38 0
 6-311+G(2d,p)
 ****
 1  2  3  4  5  17  18  19  20  21  22  23  24  25 0
 3-21G
 ****
 27  28  29  34  36  39  40  41  42  43  44  45  46 0
 3-21G
 ****


