%nproc=1
%NoSave
%Mem=1900MB
#P OB98/GEN NMR

erre ene a

0 1
  C     -156.943      39.912     -32.317
  O     -155.748      39.898     -31.555
  P     -154.405      39.232     -32.132
  C     -152.774      40.181     -30.367
  O     -153.458      39.035     -30.853
  C     -152.380      39.968     -28.907
  O     -153.538      40.127     -28.066
  C     -151.829      38.582     -28.598
  O     -150.490      38.451     -29.048
  C     -152.023      38.525     -27.087
  O     -150.975      39.246     -26.421
  C     -153.363      39.271     -26.912
  N     -154.497      38.368     -26.749
  C     -154.838      38.025     -25.438
  O     -154.213      38.478     -24.480
  N     -155.914      37.198     -25.233
  C     -156.577      36.734     -26.247
  N     -157.674      35.974     -25.983
  C     -156.216      37.024     -27.646
  C     -155.181      37.843     -27.822
  O     -153.777      39.971     -33.264
  O     -154.821      37.734     -32.490
  H     -150.168      38.700     -26.494
  H     -155.175      37.631     -33.407
  H     -156.791      36.603     -28.459
  H     -154.865      38.122     -28.818
  H     -153.315      39.937     -26.043
  H     -152.037      37.507     -26.686
  H     -152.444      37.810     -29.076
  H     -151.648      40.739     -28.634
  H     -157.984      35.946     -25.018
  H     -153.445      41.043     -30.434
  H     -158.390      35.820     -26.680
  H     -151.894      40.369     -30.990
  P     -150.105      37.120     -29.854
  C     -148.585      38.621     -31.323
  O     -148.700      37.430     -30.567
  O     -151.165      37.097     -31.051
  O     -150.147      35.871     -29.038
  H     -151.883      36.467     -30.857
  H     -147.527      38.797     -31.533
  H     -148.979      39.474     -30.766
  H     -149.118      38.513     -32.270
  H     -157.716      40.398     -31.759
  H     -157.238      38.907     -32.535
  H     -156.777      40.442     -33.232

 3  4  5  6  7  8  9  10  11  12  13  23  27  28  29  30  32 0
 6-311+G(2d,p)
 ****
 34  35 0
 6-311+G(2d,p)
 ****
 1  2  14  15  16  17  18  19  20  21  22  24  25  26 0
 3-21G
 ****
 31  33  36  37  38  39  40  41  42  43  44  45  46 0
 3-21G
 ****


