%nproc=1
%NoSave
%Mem=1900MB
#P OB98/GEN NMR

erre ene a

0 1
  C      262.986     106.931      13.290
  O      261.967     106.141      13.862
  H      262.671     107.227      12.285
  H      263.912     106.356      13.201
  H      263.157     107.831      13.884
  P      262.183     105.525      15.330
  C      260.860     107.267      16.675
  O      260.866     105.942      16.160
  C      259.734     107.458      17.691
  O      259.966     108.675      18.452
  C      258.339     107.570      17.054
  O      257.418     106.731      17.755
  C      257.966     109.029      17.271
  O      256.557     109.249      17.273
  C      258.687     109.319      18.592
  N      258.808     110.748      18.847
  C      257.922     111.286      19.786
  O      257.100     110.558      20.348
  N      257.946     112.635      20.023
  C      258.755     113.392      19.347
  N      258.707     114.726      19.610
  C      259.688     112.871      18.328
  C      259.666     111.551      18.134
  O      263.477     105.889      15.976
  O      261.994     103.947      15.143
  H      256.391     110.206      17.424
  H      262.445     103.482      15.887
  H      260.339     113.545      17.790
  H      260.316     111.079      17.404
  H      258.161     108.854      19.438
  H      258.400     109.638      16.468
  H      258.327     107.308      15.997
  H      259.774     106.632      18.412
  H      258.046     115.041      20.311
  H      260.745     107.967      15.838
  H      259.269     115.412      19.133
  H      261.819     107.451      17.168
  P      256.624     105.654      16.866
  C      258.634     104.011      16.929
  O      257.246     104.205      17.171
  O      257.107     105.979      15.376
  O      255.139     105.754      16.997
  H      256.373     106.371      14.866
  H      258.902     103.005      17.176
  H      259.200     104.689      17.533
  H      258.845     104.193      15.896

 6  7  8  9  10  11  12  13  14  15  16  26  30  31  32  33  35 0
 6-311+G(2d,p)
 ****
 37  38 0
 6-311+G(2d,p)
 ****
 1  2  3  4  5  17  18  19  20  21  22  23  24  25 0
 3-21G
 ****
 27  28  29  34  36  39  40  41  42  43  44  45  46 0
 3-21G
 ****


