%nproc=1
%NoSave
%Mem=1900MB
#P OB98/GEN NMR

erre ene a

0 1
  C      346.375    -403.021     609.569
  O      345.047    -402.547     609.462
  H      346.414    -404.047     609.196
  H      346.692    -403.019     610.617
  H      347.058    -402.405     608.974
  P      344.743    -401.011     609.797
  C      345.675    -399.550     611.715
  O      345.087    -400.797     611.350
  C      346.542    -399.739     612.962
  O      347.683    -400.571     612.657
  C      347.111    -398.434     613.508
  O      346.130    -397.702     614.214
  C      348.254    -398.958     614.365
  O      347.769    -399.417     615.639
  C      348.769    -400.138     613.514
  N      349.957    -399.801     612.730
  C      351.090    -399.431     613.451
  O      351.109    -399.356     614.683
  N      352.199    -399.125     612.709
  C      352.247    -399.041     611.346
  O      353.245    -398.673     610.730
  C      351.019    -399.420     610.639
  C      349.944    -399.772     611.347
  O      343.404    -400.509     609.375
  O      345.926    -400.223     609.061
  H      347.280    -398.663     616.029
  H      345.575    -399.798     608.253
  H      353.024    -398.844     613.213
  H      351.023    -399.374     609.556
  H      349.026    -400.049     610.843
  H      349.014    -400.999     614.161
  H      349.008    -398.198     614.557
  H      347.535    -397.833     612.688
  H      345.944    -400.251     613.724
  H      344.873    -398.839     611.927
  H      346.269    -399.180     610.871
  P      346.361    -396.144     614.521
  C      347.665    -394.898     616.352
  O      346.838    -396.012     616.049
  O      345.236    -395.245     614.132
  O      347.687    -395.788     613.692
  H      347.479    -395.095     613.033
  H      347.918    -394.914     617.391
  H      347.141    -393.993     616.127
  H      348.559    -394.948     615.766

 6  7  8  9  10  11  12  13  14  15  16  26  31  32  33  34  35 0
 6-311+G(2d,p)
 ****
 36  37 0
 6-311+G(2d,p)
 ****
 1  2  3  4  5  17  18  19  20  21  22  23  24  25 0
 3-21G
 ****
 27  28  29  30  38  39  40  41  42  43  44  45 0
 3-21G
 ****


