%nproc=1
%NoSave
%Mem=1900MB
#P OB98/GEN NMR

erre ene a

0 1
  C      -87.904    -160.880       6.870
  O      -89.025    -161.327       7.602
  H      -87.765    -159.811       7.057
  H      -88.066    -161.030       5.800
  H      -87.006    -161.415       7.190
  P      -89.443    -162.865       7.422
  C      -90.883    -164.205       5.721
  O      -90.329    -162.949       6.086
  C      -92.235    -163.994       5.047
  O      -93.152    -163.368       5.975
  C      -92.190    -163.071       3.836
  O      -91.699    -163.728       2.678
  C      -93.656    -162.682       3.716
  O      -94.403    -163.674       2.994
  C      -94.105    -162.615       5.192
  N      -94.236    -161.239       5.666
  C      -95.507    -160.683       5.552
  O      -96.471    -161.291       5.088
  N      -95.629    -159.384       5.961
  C      -94.615    -158.588       6.423
  O      -94.775    -157.407       6.703
  C      -93.297    -159.237       6.532
  C      -93.166    -160.510       6.146
  O      -90.506    -163.094       8.600
  O      -88.312    -163.839       7.485
  H      -90.088    -163.577       9.334
  H      -94.218    -163.518       2.047
  H      -96.540    -158.958       5.878
  H      -92.472    -158.638       6.903
  H      -92.197    -161.002       6.199
  H      -95.076    -163.111       5.319
  H      -93.778    -161.740       3.180
  H      -91.603    -162.173       4.066
  H      -92.645    -164.977       4.772
  H      -91.019    -164.817       6.616
  H      -90.186    -164.717       5.046
  P      -91.023    -162.840       1.525
  C      -91.963    -161.474      -0.512
  O      -92.225    -162.245       0.646
  O      -90.384    -163.977       0.598
  O      -90.056    -161.826       2.036
  H      -90.928    -164.781       0.551
  H      -92.888    -161.171      -0.956
  H      -91.406    -162.061      -1.213
  H      -91.396    -160.607      -0.243

 6  7  8  9  10  11  12  13  14  15  16  27  31  32  33  34  35 0
 6-311+G(2d,p)
 ****
 36  37 0
 6-311+G(2d,p)
 ****
 1  2  3  4  5  17  18  19  20  21  22  23  24  25 0
 3-21G
 ****
 26  28  29  30  38  39  40  41  42  43  44  45 0
 3-21G
 ****


