%nproc=1
%NoSave
%Mem=1900MB
#P OB98/GEN NMR

erre ene a

0 1
  C      -36.727      96.706     -85.405
  O      -35.530      96.070     -84.953
  P      -34.825      96.580     -83.610
  C      -33.341      98.567     -82.873
  O      -33.827      97.785     -83.959
  C      -31.828      98.764     -83.004
  O      -31.117      97.509     -82.872
  C      -31.416      99.300     -84.369
  O      -31.774     100.633     -84.664
  C      -29.939      98.948     -84.422
  O      -29.142      99.918     -83.744
  C      -29.913      97.598     -83.666
  N      -29.782      96.450     -84.563
  C      -28.518      96.240     -85.104
  O      -27.561      96.983     -84.896
  N      -28.397      95.156     -85.932
  C      -29.401      94.305     -86.289
  O      -29.242      93.362     -87.054
  C      -30.720      94.592     -85.705
  C      -30.849      95.635     -84.881
  O      -34.256      95.517     -82.733
  O      -36.023      97.340     -82.852
  H      -28.213      99.627     -83.806
  H      -35.961      97.122     -81.902
  H      -27.486      94.983     -86.327
  H      -31.541      93.941     -85.970
  H      -31.812      95.864     -84.439
  H      -29.072      97.570     -82.962
  H      -29.573      98.897     -85.453
  H      -31.913      98.686     -85.135
  H      -31.491      99.419     -82.199
  H      -33.579      98.076     -81.928
  H      -33.868      99.528     -82.864
  P      -32.816     101.029     -85.816
  C      -32.804     101.081     -88.408
  O      -32.044     101.022     -87.222
  O      -33.733     102.175     -85.547
  O      -33.696      99.687     -85.922
  H      -34.610      99.936     -86.156
  H      -32.121     101.049     -89.261
  H      -33.374     102.012     -88.452
  H      -33.481     100.225     -88.472
  H      -37.058      96.241     -86.310
  H      -36.533      97.743     -85.587
  H      -37.486      96.611     -84.657

 3  4  5  6  7  8  9  10  11  12  13  23  28  29  30  31  32 0
 6-311+G(2d,p)
 ****
 33  34 0
 6-311+G(2d,p)
 ****
 1  2  14  15  16  17  18  19  20  21  22  24  25  26  27 0
 3-21G
 ****
 35  36  37  38  39  40  41  42  43  44  45 0
 3-21G
 ****


