%nproc=1
%NoSave
%Mem=1900MB
#P OB98/GEN NMR

erre ene a

0 1
  C     -449.324    1472.885     -64.549
  O     -450.185    1473.127     -65.647
  H     -448.308    1472.735     -64.924
  H     -449.626    1471.984     -64.009
  H     -449.319    1473.746     -63.863
  P     -451.723    1473.478     -65.359
  C     -451.961    1475.016     -67.396
  O     -452.395    1473.812     -66.786
  C     -452.683    1475.230     -68.727
  O     -452.171    1474.290     -69.696
  C     -454.208    1475.022     -68.637
  O     -454.841    1475.984     -69.480
  C     -454.402    1473.633     -69.212
  O     -455.698    1473.454     -69.758
  C     -453.287    1473.546     -70.231
  N     -454.728    1469.223     -72.446
  C     -455.325    1470.461     -72.438
  N     -456.524    1470.562     -73.082
  N     -454.828    1471.516     -71.828
  C     -453.632    1471.263     -71.228
  C     -452.946    1470.080     -71.157
  C     -453.518    1468.933     -71.815
  O     -453.023    1467.787     -71.848
  N     -451.783    1470.234     -70.433
  C     -451.787    1471.510     -70.054
  N     -452.898    1472.167     -70.502
  O     -451.965    1474.500     -64.300
  O     -452.374    1472.064     -64.976
  H     -456.342    1473.809     -69.109
  H     -452.471    1471.973     -64.011
  H     -455.167    1468.448     -72.914
  H     -451.018    1471.978     -69.472
  H     -453.560    1473.987     -71.215
  H     -454.267    1472.882     -68.409
  H     -456.959    1469.817     -73.569
  H     -454.595    1475.112     -67.616
  H     -456.963    1471.471     -73.102
  H     -452.447    1476.235     -69.103
  H     -450.884    1474.954     -67.569
  H     -452.159    1475.863     -66.724
  P     -455.920    1476.980     -68.864
  C     -454.203    1478.778     -68.157
  O     -455.362    1478.474     -68.957
  O     -456.459    1476.593     -67.508
  O     -457.095    1476.979     -69.962
  H     -457.937    1477.136     -69.521
  H     -453.927    1479.801     -68.304
  H     -453.392    1478.144     -68.449
  H     -454.430    1478.614     -67.124

 6  7  8  9  10  11  12  13  14  15  26  29  33  34 0
 6-311+G(2d,p)
 ****
 36  38  39  40  41 0
 6-311+G(2d,p)
 ****
 1  2  3  4  5  16  17  18  19  20  21  22  23  24  25 0
 3-21G
 ****
 27  28  30  31  32  35  37  42  43  44  45  46  47 0
 3-21G
 ****
 48  49 0
 3-21G
 ****


