%nproc=1
%NoSave
%Mem=1900MB
#P OB98/GEN NMR

erre ene a

0 1
  C      230.453    -883.480     654.132
  O      229.425    -882.507     654.145
  H      230.411    -884.038     655.075
  H      231.430    -882.990     654.061
  H      230.323    -884.176     653.307
  P      229.196    -881.610     652.833
  C      229.988    -879.394     653.886
  O      230.252    -880.401     652.912
  C      231.117    -878.373     653.925
  O      231.098    -877.609     652.687
  C      231.023    -877.393     655.094
  O      232.336    -877.115     655.574
  C      230.445    -876.141     654.456
  O      230.807    -874.953     655.156
  C      231.033    -876.212     653.040
  N      230.272    -871.694     650.926
  C      231.250    -872.107     651.800
  N      232.152    -871.183     652.197
  N      231.341    -873.334     652.249
  C      230.388    -874.163     651.763
  C      229.363    -873.869     650.887
  C      229.269    -872.500     650.401
  O      228.421    -872.068     649.627
  N      228.583    -874.965     650.649
  C      229.121    -875.926     651.385
  N      230.215    -875.478     652.081
  O      227.785    -881.183     652.591
  O      229.760    -882.516     651.643
  H      230.270    -874.219     654.773
  H      229.032    -882.954     651.164
  H      230.242    -870.740     650.610
  H      228.769    -876.941     651.444
  H      232.043    -875.788     652.989
  H      229.343    -876.208     654.424
  H      232.150    -870.227     651.872
  H      230.393    -877.758     655.910
  H      232.893    -871.470     652.828
  H      232.078    -878.917     653.947
  H      229.890    -879.883     654.865
  H      229.030    -878.903     653.640
  P      232.837    -877.862     656.905
  C      232.725    -875.830     658.479
  O      232.200    -877.115     658.171
  O      234.316    -878.125     656.985
  O      232.019    -879.252     656.865
  H      232.550    -879.945     657.298
  H      232.223    -875.436     659.338
  H      232.575    -875.175     657.647
  H      233.772    -875.912     658.684

 6  7  8  9  10  11  12  13  14  15  26  29  33  34 0
 6-311+G(2d,p)
 ****
 36  38  39  40  41 0
 6-311+G(2d,p)
 ****
 1  2  3  4  5  16  17  18  19  20  21  22  23  24  25 0
 3-21G
 ****
 27  28  30  31  32  35  37  42  43  44  45  46  47 0
 3-21G
 ****
 48  49 0
 3-21G
 ****


