%nproc=1
%NoSave
%Mem=1900MB
#P OB98/GEN NMR

erre ene a

0 1
  C     -527.953     357.346     399.390
  O     -527.602     358.737     399.347
  P     -526.222     359.293     399.950
  C     -525.295     360.299     397.748
  O     -525.747     360.556     399.083
  C     -525.665     361.445     396.798
  O     -527.020     361.306     396.321
  C     -525.585     362.836     397.413
  O     -524.221     363.264     397.525
  C     -526.417     363.639     396.422
  O     -525.637     364.007     395.256
  C     -527.512     362.623     396.026
  N     -528.781     362.871     396.725
  C     -529.348     364.139     396.530
  O     -528.775     364.983     395.829
  N     -530.560     364.409     397.129
  C     -531.107     363.541     397.926
  N     -532.298     363.856     398.491
  C     -530.473     362.241     398.233
  C     -529.323     361.978     397.600
  O     -525.168     358.260     400.139
  O     -526.629     359.956     401.359
  H     -526.293     364.287     394.576
  H     -525.882     359.874     401.981
  H     -530.946     361.540     398.925
  H     -528.799     361.041     397.787
  H     -527.699     362.642     394.948
  H     -526.813     364.571     396.850
  H     -526.071     362.854     398.378
  H     -524.994     361.366     395.916
  H     -532.703     364.753     398.246
  H     -525.778     359.368     397.405
  H     -532.799     363.250     399.111
  H     -524.208     360.154     397.765
  P     -523.843     364.398     398.591
  C     -522.709     362.810     400.245
  O     -522.531     363.918     399.372
  O     -524.955     364.911     399.448
  O     -523.279     365.601     397.657
  H     -523.478     366.452     398.083
  H     -521.726     362.340     400.398
  H     -523.411     362.072     399.840
  H     -523.077     363.175     401.215
  H     -528.910     357.205     398.933
  H     -527.992     357.019     400.408
  H     -527.218     356.776     398.861

 3  4  5  6  7  8  9  10  11  12  13  23  27  28  29  30  32 0
 6-311+G(2d,p)
 ****
 34  35 0
 6-311+G(2d,p)
 ****
 1  2  14  15  16  17  18  19  20  21  22  24  25  26 0
 3-21G
 ****
 31  33  36  37  38  39  40  41  42  43  44  45  46 0
 3-21G
 ****


