%nproc=1
%NoSave
%Mem=1900MB
#P OB98/GEN NMR

erre ene a

0 1
  C      593.696     -79.245     260.245
  O      592.906     -78.224     260.825
  H      594.340     -79.668     261.019
  H      594.324     -78.829     259.454
  H      593.065     -80.043     259.839
  P      591.738     -77.560     259.950
  C      589.771     -78.513     261.325
  O      590.456     -78.521     260.081
  C      588.346     -79.063     261.165
  O      588.431     -80.440     260.670
  C      587.534     -79.111     262.475
  O      586.154     -78.935     262.119
  C      587.813     -80.525     262.942
  O      586.965     -80.926     263.994
  C      587.687     -81.257     261.603
  N      588.191     -82.624     261.586
  C      587.284     -83.649     261.849
  O      586.086     -83.488     262.093
  N      587.800     -84.920     261.831
  C      589.100     -85.261     261.573
  O      589.498     -86.417     261.542
  C      590.008     -84.134     261.308
  C      589.522     -82.891     261.317
  O      592.106     -77.188     258.554
  O      591.312     -76.276     260.812
  H      591.705     -75.475     260.417
  H      587.030     -80.276     264.720
  H      587.159     -85.676     262.024
  H      591.049     -84.368     261.108
  H      590.173     -82.039     261.121
  H      586.642     -81.253     261.266
  H      588.832     -80.591     263.333
  H      587.824     -78.326     263.186
  H      587.829     -78.482     260.396
  H      589.727     -77.483     261.694
  H      590.330     -79.122     262.046
  P      585.388     -77.529     262.182
  C      585.052     -77.305     259.614
  O      585.649     -76.757     260.794
  O      585.710     -76.711     263.386
  O      583.824     -77.881     262.125
  H      583.313     -77.176     262.564
  H      585.305     -76.697     258.771
  H      583.989     -77.329     259.730
  H      585.416     -78.299     259.459

 6  7  8  9  10  11  12  13  14  15  16  27  31  32  33  34  35 0
 6-311+G(2d,p)
 ****
 36  37 0
 6-311+G(2d,p)
 ****
 1  2  3  4  5  17  18  19  20  21  22  23  24  25 0
 3-21G
 ****
 26  28  29  30  38  39  40  41  42  43  44  45 0
 3-21G
 ****


