%nproc=1
%NoSave
%Mem=1900MB
#P OB98/GEN NMR

erre ene a

0 1
  C      -53.664     -57.852      54.786
  O      -53.323     -56.615      55.382
  H      -54.399     -58.357      55.418
  H      -52.775     -58.483      54.706
  H      -54.099     -57.693      53.795
  P      -52.436     -55.619      54.496
  C      -50.214     -56.983      54.208
  O      -50.893     -55.911      54.848
  C      -48.725     -56.927      54.532
  O      -48.040     -58.076      53.996
  C      -47.994     -55.750      53.909
  O      -48.302     -54.524      54.535
  C      -46.547     -56.183      54.101
  O      -46.060     -55.842      55.404
  C      -46.639     -57.719      53.934
  N      -46.006     -58.167      52.708
  C      -44.613     -58.307      52.768
  O      -44.014     -58.074      53.818
  N      -43.940     -58.668      51.631
  C      -44.591     -58.846      50.525
  N      -43.859     -59.170      49.426
  C      -46.058     -58.707      50.418
  C      -46.697     -58.367      51.537
  O      -52.707     -54.205      55.191
  O      -52.733     -55.649      53.035
  H      -46.706     -56.209      56.043
  H      -52.606     -54.217      56.156
  H      -46.556     -58.879      49.475
  H      -47.774     -58.244      51.548
  H      -46.150     -58.226      54.776
  H      -45.883     -55.701      53.378
  H      -48.197     -55.707      52.831
  H      -48.613     -56.933      55.624
  H      -42.852     -59.201      49.532
  H      -50.369     -56.944      53.125
  H      -44.247     -59.255      48.498
  H      -50.650     -57.918      54.572
  P      -48.919     -53.299      53.711
  C      -47.213     -53.642      51.811
  O      -47.743     -52.735      52.771
  O      -49.603     -52.258      54.530
  O      -49.873     -54.023      52.647
  H      -49.423     -54.646      52.051
  H      -46.443     -53.157      51.249
  H      -47.993     -53.957      51.149
  H      -46.805     -54.494      52.313

 6  7  8  9  10  11  12  13  14  15  16  26  30  31  32  33  35 0
 6-311+G(2d,p)
 ****
 37  38 0
 6-311+G(2d,p)
 ****
 1  2  3  4  5  17  18  19  20  21  22  23  24  25 0
 3-21G
 ****
 27  28  29  34  36  39  40  41  42  43  44  45  46 0
 3-21G
 ****


