%nproc=1
%NoSave
%Mem=1900MB
#P OB98/GEN NMR

erre ene a

0 1
  C     -604.154     320.007    -200.922
  O     -602.763     320.216    -200.764
  H     -604.361     319.838    -201.980
  H     -604.701     320.890    -200.582
  H     -604.482     319.130    -200.364
  P     -602.135     320.157    -199.293
  C     -602.041     322.689    -198.786
  O     -602.671     321.442    -198.501
  C     -602.506     323.768    -197.801
  O     -602.527     323.202    -196.458
  C     -601.533     324.954    -197.770
  O     -602.190     326.174    -197.417
  C     -600.560     324.572    -196.668
  O     -599.895     325.692    -196.096
  C     -601.490     323.845    -195.686
  N     -600.636     322.032    -191.002
  C     -601.257     323.205    -191.383
  N     -601.715     323.993    -190.387
  N     -601.397     323.574    -192.626
  C     -600.832     322.728    -193.513
  C     -600.162     321.552    -193.262
  C     -600.046     321.129    -191.878
  O     -599.488     320.108    -191.484
  N     -599.716     320.969    -194.424
  C     -600.107     321.781    -195.366
  N     -600.806     322.857    -194.876
  O     -600.582     320.514    -199.533
  O     -602.293     318.849    -198.577
  H     -599.405     325.388    -195.317
  H     -600.047     320.174    -198.796
  H     -600.577     321.784    -190.037
  H     -599.916     321.644    -196.438
  H     -601.977     324.561    -195.010
  H     -599.802     323.924    -197.093
  H     -601.448     323.843    -189.416
  H     -601.017     325.093    -198.714
  H     -601.886     324.982    -190.625
  H     -603.536     324.075    -198.032
  H     -602.317     322.955    -199.807
  H     -600.960     322.580    -198.761
  P     -602.523     327.230    -198.569
  C     -600.166     328.418    -198.358
  O     -601.173     327.837    -199.162
  O     -603.179     328.467    -197.782
  O     -603.433     326.705    -199.641
  H     -604.114     328.576    -198.042
  H     -599.362     328.752    -198.980
  H     -599.801     327.691    -197.663
  H     -600.573     329.251    -197.823

 6  7  8  9  10  11  12  13  14  15  26  29  33  34 0
 6-311+G(2d,p)
 ****
 36  38  39  40  41 0
 6-311+G(2d,p)
 ****
 1  2  3  4  5  16  17  18  19  20  21  22  23  24  25 0
 3-21G
 ****
 27  28  30  31  32  35  37  42  43  44  45  46  47 0
 3-21G
 ****
 48  49 0
 3-21G
 ****


