%nproc=1
%NoSave
%Mem=1900MB
#P OB98/GEN NMR

erre ene a

0 1
  C     -897.100    -528.563    -814.782
  O     -897.150    -528.462    -816.193
  H     -896.070    -528.465    -814.431
  H     -897.700    -527.754    -814.351
  H     -897.520    -529.523    -814.459
  P     -896.300    -529.546    -817.019
  C     -898.240    -530.853    -818.152
  O     -897.250    -530.831    -817.133
  C     -898.130    -532.159    -818.933
  O     -897.050    -532.071    -819.891
  C     -897.830    -533.371    -818.064
  O     -898.980    -533.909    -817.446
  C     -897.260    -534.320    -819.104
  O     -898.330    -534.896    -819.880
  C     -896.420    -533.375    -819.964
  N     -891.790    -535.569    -820.096
  C     -892.960    -535.904    -820.678
  N     -894.140    -535.255    -820.620
  C     -894.040    -534.153    -819.862
  C     -892.910    -533.688    -819.199
  C     -891.740    -534.452    -819.338
  N     -890.560    -534.128    -818.714
  N     -893.200    -532.528    -818.504
  C     -894.480    -532.297    -818.747
  N     -895.030    -533.271    -819.534
  O     -895.170    -530.021    -815.989
  O     -895.740    -529.077    -818.323
  H     -898.820    -534.153    -820.279
  H     -894.470    -530.502    -816.451
  H     -892.940    -536.805    -821.280
  H     -895.040    -531.455    -818.380
  H     -896.400    -533.679    -821.030
  H     -896.710    -535.163    -818.658
  H     -897.040    -533.149    -817.326
  H     -899.060    -532.306    -819.498
  H     -898.080    -530.004    -818.823
  H     -889.820    -534.817    -818.750
  H     -890.540    -533.388    -818.027
  H     -899.230    -530.773    -817.693
  P     -898.760    -534.844    -816.156
  C     -898.620    -532.726    -814.645
  O     -897.990    -533.940    -815.067
  O     -897.640    -535.865    -816.646
  O     -900.000    -535.544    -815.675
  H     -897.750    -536.739    -816.218
  H     -897.999    -532.233    -813.926
  H     -899.568    -532.951    -814.203
  H     -898.763    -532.086    -815.490

 6  7  8  9  10  11  12  13  14  15  25  28  32  33  34  35 0
 6-311+G(2d,p)
 ****
 36  39  40 0
 6-311+G(2d,p)
 ****
 1  2  3  4  5  16  17  18  19  20  21  22  23  24 0
 3-21G
 ****
 26  27  29  30  31  37  38  41  42  43  44  45  46  47 0
 3-21G
 ****
 48 0
 3-21G
 ****


