%nproc=1
%NoSave
%Mem=1900MB
#P OB98/GEN NMR

erre ene a

0 1
  C       28.546       6.792    -122.246
  O       28.088       6.019    -123.338
  P       28.575       4.505    -123.517
  C       26.402       3.452    -122.641
  O       27.804       3.598    -122.444
  C       26.067       2.023    -123.060
  O       26.236       1.109    -121.952
  C       24.628       1.831    -123.513
  O       24.393       2.394    -124.790
  C       24.502       0.314    -123.444
  O       25.072      -0.299    -124.609
  C       25.350      -0.010    -122.196
  N       24.532      -0.304    -121.029
  C       23.867      -1.535    -121.039
  O       23.924      -2.266    -122.027
  N       23.148      -1.898    -119.927
  C       23.000      -1.057    -118.952
  N       22.328      -1.494    -117.854
  C       23.552       0.313    -118.977
  C       24.318       0.611    -120.025
  O       30.055       4.312    -123.551
  O       27.915       4.047    -124.904
  H       28.607       3.645    -125.464
  H       24.344      -0.400    -125.254
  H       23.344       0.998    -118.169
  H       24.783       1.586    -120.117
  H       26.003      -0.868    -122.395
  H       23.460      -0.015    -123.382
  H       23.948       2.286    -122.783
  H       26.763       1.730    -123.857
  H       21.981      -2.445    -117.865
  H       26.084       4.149    -123.422
  H       22.435      -1.059    -116.941
  H       25.879       3.714    -121.715
  P       22.862       2.546    -125.245
  C       22.730       5.001    -124.434
  O       22.205       3.693    -124.342
  O       22.182       1.200    -124.706
  O       22.664       2.703    -126.717
  H       21.504       0.899    -125.339
  H       21.986       5.705    -124.053
  H       22.969       5.266    -125.468
  H       23.632       5.076    -123.820
  H       28.115       7.770    -122.296
  H       29.612       6.870    -122.287
  H       28.257       6.321    -121.330

 3  4  5  6  7  8  9  10  11  12  13  24  27  28  29  30  32 0
 6-311+G(2d,p)
 ****
 34  35 0
 6-311+G(2d,p)
 ****
 1  2  14  15  16  17  18  19  20  21  22  23  25  26 0
 3-21G
 ****
 31  33  36  37  38  39  40  41  42  43  44  45  46 0
 3-21G
 ****


