%nproc=1
%NoSave
%Mem=1900MB
#P OB98/GEN NMR

erre ene a

0 1
  C     -154.978    -404.883     386.358
  O     -153.698    -404.855     385.715
  P     -152.666    -406.033     386.027
  C     -152.463    -406.777     383.564
  O     -152.802    -407.166     384.894
  C     -153.036    -407.782     382.553
  O     -154.468    -407.939     382.802
  C     -152.927    -407.355     381.079
  O     -151.748    -407.711     380.364
  C     -154.075    -408.138     380.448
  O     -153.649    -409.489     380.161
  C     -155.137    -408.158     381.545
  N     -159.644    -407.179     379.320
  C     -158.867    -408.274     379.336
  N     -157.680    -408.463     379.943
  C     -157.314    -407.355     380.618
  C     -158.010    -406.155     380.701
  C     -159.231    -406.090     380.010
  N     -160.027    -404.961     379.991
  N     -157.321    -405.249     381.477
  C     -156.215    -405.873     381.837
  N     -156.177    -407.160     381.361
  O     -152.651    -406.538     387.434
  O     -151.255    -405.359     385.660
  H     -153.393    -409.884     381.010
  H     -150.581    -405.670     386.303
  H     -159.245    -409.133     378.762
  H     -155.435    -405.449     382.443
  H     -155.645    -409.130     381.612
  H     -154.406    -407.702     379.502
  H     -153.112    -406.276     380.974
  H     -152.559    -408.755     382.692
  H     -151.378    -406.732     383.460
  H     -160.860    -404.978     379.432
  H     -159.700    -404.123     380.459
  H     -152.844    -405.761     383.413
  P     -150.339    -406.994     380.653
  C     -149.389    -409.008     382.023
  O     -149.788    -407.658     382.003
  O     -150.389    -405.505     380.664
  O     -149.396    -407.632     379.530
  H     -149.207    -408.569     379.650
  H     -148.852    -409.201     382.961
  H     -148.725    -409.233     381.183
  H     -150.269    -409.661     381.981
  H     -155.551    -404.034     386.049
  H     -154.845    -404.857     387.419
  H     -155.495    -405.780     386.085

 3  4  5  6  7  8  9  10  11  12  22  25  29  30  31  32 0
 6-311+G(2d,p)
 ****
 33  36  37 0
 6-311+G(2d,p)
 ****
 1  2  13  14  15  16  17  18  19  20  21  23  24  26 0
 3-21G
 ****
 27  28  34  35  38  39  40  41  42  43  44  45  46  47  48 0
 3-21G
 ****


