%nproc=1
%NoSave
%Mem=1900MB
#P OB98/GEN NMR

erre ene a

0 1
  C     -319.665      78.337    -396.841
  O     -319.134      78.245    -395.535
  H     -320.582      77.746    -396.889
  H     -318.954      77.935    -397.566
  H     -319.906      79.374    -397.093
  P     -317.898      79.184    -395.137
  C     -316.201      77.696    -396.382
  O     -316.783      78.989    -396.271
  C     -315.109      77.524    -395.331
  O     -314.499      76.221    -395.453
  C     -313.968      78.527    -395.449
  O     -314.355      79.796    -394.959
  C     -312.888      77.828    -394.637
  O     -313.095      78.032    -393.231
  C     -313.125      76.349    -395.024
  N     -312.206      75.867    -396.055
  C     -310.905      75.591    -395.646
  O     -310.512      75.769    -394.495
  N     -310.064      75.117    -396.616
  C     -310.365      74.977    -397.941
  O     -309.555      74.599    -398.781
  C     -311.743      75.318    -398.322
  C     -312.587      75.741    -397.377
  O     -317.399      79.043    -393.737
  O     -318.442      80.663    -395.420
  H     -312.705      77.259    -392.777
  H     -318.717      81.080    -394.583
  H     -309.115      74.922    -396.343
  H     -312.018      75.228    -399.363
  H     -313.606      76.000    -397.640
  H     -313.012      75.705    -394.140
  H     -311.887      78.193    -394.863
  H     -313.629      78.599    -396.491
  H     -315.577      77.585    -394.340
  H     -315.762      77.592    -397.383
  H     -316.982      76.941    -396.256
  P     -314.176      81.110    -395.854
  C     -311.966      81.578    -394.651
  O     -312.608      81.449    -395.911
  O     -315.047      82.264    -395.476
  O     -314.496      80.612    -397.341
  H     -315.371      80.940    -397.620
  H     -310.930      81.803    -394.800
  H     -312.057      80.660    -394.108
  H     -312.426      82.368    -394.095

 6  7  8  9  10  11  12  13  14  15  16  26  31  32  33  34  35 0
 6-311+G(2d,p)
 ****
 36  37 0
 6-311+G(2d,p)
 ****
 1  2  3  4  5  17  18  19  20  21  22  23  24  25 0
 3-21G
 ****
 27  28  29  30  38  39  40  41  42  43  44  45 0
 3-21G
 ****


