%nproc=1
%NoSave
%Mem=1900MB
#P OB98/GEN NMR

erre ene a

0 1
  C      -35.494     -14.833      15.782
  O      -35.608     -16.163      16.243
  H      -35.328     -14.848      14.701
  H      -34.643     -14.340      16.261
  H      -36.412     -14.277      15.991
  P      -35.899     -16.362      17.809
  C      -38.458     -15.931      17.633
  O      -37.204     -15.487      18.137
  C      -39.568     -15.563      18.614
  O      -39.564     -14.133      18.829
  C      -40.973     -15.899      18.125
  O      -41.278     -17.272      18.295
  C      -41.817     -14.977      18.994
  O      -42.067     -15.550      20.283
  C      -40.920     -13.740      19.136
  N      -43.386      -9.282      18.958
  C      -43.071     -10.100      19.986
  N      -42.392     -11.267      19.951
  C      -42.019     -11.558      18.693
  C      -42.274     -10.827      17.546
  C      -42.991      -9.631      17.710
  N      -43.343      -8.817      16.659
  N      -41.769     -11.475      16.436
  C      -41.212     -12.573      16.906
  N      -41.336     -12.662      18.263
  O      -34.709     -15.542      18.499
  O      -35.947     -17.779      18.273
  H      -42.534     -16.394      20.127
  H      -33.976     -16.149      18.714
  H      -43.413      -9.777      20.965
  H      -40.722     -13.331      16.307
  H      -40.918     -13.346      20.160
  H      -42.786     -14.776      18.535
  H      -41.090     -15.603      17.075
  H      -39.362     -16.052      19.574
  H      -38.433     -17.020      17.510
  H      -38.633     -15.465      16.658
  H      -43.879      -7.985      16.848
  H      -43.147      -9.121      15.715
  P      -42.426     -17.918      17.386
  C      -40.971     -19.385      15.807
  O      -41.790     -18.234      15.948
  O      -43.408     -16.686      17.105
  O      -43.142     -19.070      18.011
  H      -44.183     -16.727      17.695
  H      -40.626     -19.456      14.797
  H      -41.538     -20.259      16.052
  H      -40.131     -19.308      16.466

 6  7  8  9  10  11  12  13  14  15  25  28  32  33  34  35 0
 6-311+G(2d,p)
 ****
 36  37  40 0
 6-311+G(2d,p)
 ****
 1  2  3  4  5  16  17  18  19  20  21  22  23  24 0
 3-21G
 ****
 26  27  29  30  31  38  39 41  42  43  44  45  46  47  48 0
 3-21G
 ****


