%nproc=1
%NoSave
%Mem=1900MB
#P OB98/GEN NMR

erre ene a

0 1
  C      -33.059     -84.934      51.728
  O      -32.052     -85.921      51.648
  H      -32.621     -84.023      52.142
  H      -33.866     -85.264      52.386
  H      -33.455     -84.712      50.734
  P      -32.446     -87.385      51.129
  C      -30.515     -87.912      49.501
  O      -31.073     -88.142      50.790
  C      -29.655     -86.641      49.515
  O      -28.723     -86.752      50.619
  C      -28.853     -86.461      48.219
  O      -29.040     -85.179      47.624
  C      -27.440     -86.861      48.628
  O      -26.419     -86.272      47.851
  C      -27.395     -86.511      50.118
  N      -26.412     -87.282      50.876
  C      -25.085     -86.866      50.810
  O      -24.680     -85.895      50.176
  N      -24.192     -87.620      51.528
  C      -24.486     -88.724      52.270
  O      -23.642     -89.357      52.894
  C      -25.899     -89.131      52.277
  C      -26.782     -88.404      51.591
  O      -33.468     -87.429      50.043
  O      -32.956     -88.139      52.446
  H      -26.384     -85.322      48.092
  H      -33.929     -88.212      52.423
  H      -23.231     -87.319      51.501
  H      -26.165     -90.011      52.846
  H      -27.833     -88.674      51.576
  H      -27.165     -85.454      50.258
  H      -27.343     -87.948      48.515
  H      -29.205     -87.151      47.444
  H      -30.303     -85.781      49.715
  H      -31.340     -87.803      48.791
  H      -29.901     -88.770      49.207
  P      -29.900     -84.894      46.313
  C      -30.478     -82.412      46.959
  O      -29.898     -83.321      46.033
  O      -31.217     -85.589      46.232
  O      -28.977     -85.467      45.121
  H      -29.590     -85.793      44.431
  H      -30.375     -81.413      46.590
  H      -29.980     -82.497      47.902
  H      -31.516     -82.641      47.082

 6  7  8  9  10  11  12  13  14  15  16  26  31  32  33  34  35 0
 6-311+G(2d,p)
 ****
 36  37 0
 6-311+G(2d,p)
 ****
 1  2  3  4  5  17  18  19  20  21  22  23  24  25 0
 3-21G
 ****
 27  28  29  30  38  39  40  41  42  43  44  45 0
 3-21G
 ****


