%nproc=1
%NoSave
%Mem=1900MB
#P OB98/GEN NMR

erre ene a

0 1
  C      109.840    -109.623    -799.143
  O      111.167    -110.063    -799.353
  H      109.775    -109.166    -798.153
  H      109.149    -110.469    -799.188
  H      109.567    -108.881    -799.896
  P      111.446    -110.870    -800.714
  C      112.744    -109.281    -802.324
  O      111.485    -109.718    -801.834
  C      112.616    -108.854    -803.785
  O      112.040    -109.916    -804.576
  C      111.710    -107.647    -804.013
  O      112.325    -106.410    -803.686
  C      111.470    -107.780    -805.506
  O      112.648    -107.363    -806.223
  C      111.249    -109.302    -805.631
  N      109.840    -109.688    -805.507
  C      109.017    -109.423    -806.609
  O      109.476    -108.894    -807.620
  N      107.683    -109.737    -806.531
  C      107.213    -110.284    -805.456
  N      105.881    -110.569    -805.432
  C      108.040    -110.590    -804.277
  C      109.331    -110.271    -804.368
  O      110.050    -111.598    -801.007
  O      112.628    -111.779    -800.706
  H      113.357    -107.980    -805.974
  H      110.066    -112.007    -801.907
  H      107.598    -111.040    -803.394
  H      110.003    -110.468    -803.539
  H      111.630    -109.677    -806.589
  H      110.646    -107.168    -805.868
  H      110.756    -107.755    -803.490
  H      113.628    -108.670    -804.166
  H      105.327    -110.291    -806.235
  H      113.452    -110.111    -802.235
  H      105.393    -110.854    -804.594
  H      113.106    -108.439    -801.731
  P      111.359    -105.163    -803.387
  C      111.171    -105.862    -800.884
  O      110.492    -105.549    -802.093
  O      110.298    -105.232    -804.577
  O      112.050    -103.836    -803.323
  H      110.011    -104.337    -804.843
  H      110.456    -106.095    -800.123
  H      111.757    -105.021    -800.576
  H      111.811    -106.705    -801.042

 6  7  8  9  10  11  12  13  14  15  16  26  30  31  32  33  35 0
 6-311+G(2d,p)
 ****
 37  38 0
 6-311+G(2d,p)
 ****
 1  2  3  4  5  17  18  19  20  21  22  23  24  25 0
 3-21G
 ****
 27  28  29  34  36  39  40  41  42  43  44  45  46 0
 3-21G
 ****


