%nproc=1
%NoSave
%Mem=1900MB
#P OB98/GEN NMR

erre ene a

0 1
  C       77.740     220.374     177.256
  O       78.862     220.301     178.117
  H       78.092     220.502     176.226
  H       77.106     221.229     177.511
  H       77.155     219.452     177.315
  P       78.603     220.269     179.699
  C       77.530     221.923     181.380
  O       78.084     221.738     180.080
  C       77.027     223.354     181.537
  O       78.139     224.258     181.710
  C       76.268     223.862     180.317
  O       74.962     223.312     180.271
  C       76.338     225.361     180.536
  O       75.362     225.798     181.491
  C       77.771     225.524     181.097
  N       78.742     225.911     180.079
  C       79.012     227.279     179.977
  O       78.454     228.083     180.731
  N       79.898     227.701     179.017
  C       80.467     226.838     178.234
  N       81.330     227.329     177.299
  C       80.221     225.387     178.313
  C       79.354     224.998     179.249
  O       79.726     219.769     180.559
  O       77.286     219.369     179.848
  H       75.449     225.194     182.255
  H       77.525     218.427     179.947
  H       80.726     224.707     177.645
  H       79.113     223.944     179.375
  H       77.792     226.276     181.898
  H       76.168     225.908     179.610
  H       76.820     223.625     179.402
  H       76.404     223.411     182.443
  H       81.464     228.334     177.273
  H       78.329     221.720     182.105
  H       81.899     226.748     176.699
  H       76.713     221.214     181.559
  P       74.293     222.927     178.866
  C       73.886     224.324     176.734
  O       73.935     224.325     178.159
  O       73.166     221.946     178.948
  O       75.535     222.397     178.003
  H       75.824     221.494     178.298
  H       73.640     225.305     176.385
  H       73.141     223.630     176.403
  H       74.840     224.036     176.345

 6  7  8  9  10  11  12  13  14  15  16  26  30  31  32  33  35 0
 6-311+G(2d,p)
 ****
 37  38 0
 6-311+G(2d,p)
 ****
 1  2  3  4  5  17  18  19  20  21  22  23  24  25 0
 3-21G
 ****
 27  28  29  34  36  39  40  41  42  43  44  45  46 0
 3-21G
 ****


