%nproc=1
%NoSave
%Mem=1900MB
#P OB98/GEN NMR

erre ene a

0 1
  C       88.161    -141.240      14.562
  O       89.322    -141.163      15.390
  P       89.251    -141.787      16.865
  C       88.831    -140.805      19.216
  O       88.512    -140.737      17.829
  C       88.972    -139.392      19.809
  O       90.052    -138.702      19.127
  C       87.737    -138.499      19.647
  O       86.739    -138.534      20.660
  C       88.368    -137.107      19.708
  O       88.555    -136.716      21.081
  C       89.729    -137.298      19.042
  N       92.702    -135.565      15.253
  C       92.976    -135.918      16.528
  N       92.128    -136.368      17.473
  C       90.877    -136.458      16.989
  C       90.448    -136.136      15.711
  C       91.424    -135.667      14.816
  N       91.142    -135.297      13.520
  N       89.090    -136.348      15.585
  C       88.706    -136.771      16.775
  N       89.751    -136.867      17.652
  O       90.523    -142.359      17.393
  O       88.141    -142.934      16.700
  H       89.072    -137.427      21.505
  H       88.396    -143.704      17.244
  H       94.018    -135.822      16.830
  H       87.687    -137.019      17.042
  H       90.527    -136.748      19.556
  H       87.737    -136.342      19.248
  H       87.272    -138.651      18.665
  H       89.238    -139.475      20.871
  H       89.767    -141.354      19.350
  H       91.894    -134.928      12.959
  H       90.186    -135.310      13.197
  H       88.050    -141.390      19.705
  P       85.408    -139.408      20.490
  C       83.042    -138.900      19.492
  O       84.324    -138.422      19.837
  O       84.946    -140.109      21.722
  O       85.785    -140.382      19.275
  H       85.880    -139.936      18.418
  H       82.397    -138.045      19.270
  H       82.603    -139.471      20.314
  H       83.111    -139.530      18.597
  H       88.366    -140.783      13.616
  H       87.350    -140.728      15.037
  H       87.897    -142.266      14.413

 3  4  5  6  7  8  9  10  11  12  22  25  29  30  31  32 0
 6-311+G(2d,p)
 ****
 33  36  37 0
 6-311+G(2d,p)
 ****
 1  2  13  14  15  16  17  18  19  20  21  23  24  26 0
 3-21G
 ****
 27  28  34  35  38  39  40  41  42  43  44  45  46  47  48 0
 3-21G
 ****


