%nproc=1
%NoSave
%Mem=1900MB
#P OB98/GEN NMR

erre ene a

0 1
  C       43.643     457.043     845.974
  O       44.596     457.083     847.024
  P       44.022     457.022     848.528
  C       46.516     456.686     849.220
  O       45.265     457.292     849.495
  C       47.609     457.762     849.165
  O       47.430     458.706     850.227
  C       49.026     457.218     849.309
  O       49.497     456.711     848.075
  C       49.775     458.449     849.800
  O       50.113     459.318     848.698
  C       48.740     459.112     850.723
  N       51.081     460.234     855.063
  C       51.307     460.705     853.775
  N       52.268     461.648     853.646
  N       50.643     460.292     852.721
  C       49.727     459.345     853.005
  C       49.425     458.784     854.232
  C       50.121     459.288     855.393
  O       49.893     458.977     856.558
  N       48.455     457.831     854.119
  C       48.140     457.832     852.826
  N       48.876     458.748     852.119
  O       43.706     455.473     848.730
  O       42.833     457.893     848.791
  H       49.310     459.543     848.200
  H       42.751     455.286     848.584
  H       51.605     460.597     855.838
  H       47.393     457.214     852.374
  H       48.787     460.205     850.674
  H       50.721     458.193     850.286
  H       52.827     462.005     854.405
  H       49.066     456.434     850.080
  H       52.453     462.001     852.719
  H       47.511     458.300     848.205
  H       46.462     456.178     848.253
  H       46.740     455.952     849.997
  P       50.480     455.439     848.112
  C       49.781     454.842     845.693
  O       50.837     455.057     846.599
  O       49.524     454.250     848.603
  O       51.649     455.595     849.030
  H       50.031     453.643     849.179
  H       50.119     455.119     844.684
  H       48.890     455.431     845.946
  H       49.513     453.780     845.696
  H       44.148     457.090     845.032
  H       42.978     457.876     846.064
  H       43.084     456.132     846.034

 3  4  5  6  7  8  9  10  11  12  23  26  30  31 0
 6-311+G(2d,p)
 ****
 33  35  36  37  38 0
 6-311+G(2d,p)
 ****
 1  2  13  14  15  16  17  18  19  20  21  22  24  25 0
 3-21G
 ****
 27  28  29  32  34  39  40  41  42  43  44  45  46  47  48  49 0
 3-21G
 ****


