%nproc=1
%NoSave
%Mem=1900MB
#P OB98/GEN NMR

erre ene a

0 1
  C     -899.060    -292.537    -411.035
  O     -898.190    -291.518    -410.577
  H     -899.280    -292.361    -412.088
  H     -900.000    -292.510    -410.476
  H     -898.580    -293.517    -410.935
  P     -897.590    -291.685    -409.101
  C     -895.190    -292.574    -409.696
  O     -896.500    -292.848    -409.207
  C     -895.090    -292.850    -411.193
  O     -896.010    -291.960    -411.891
  C     -893.690    -292.640    -411.775
  O     -893.480    -293.618    -412.810
  C     -893.780    -291.256    -412.402
  O     -892.800    -291.080    -413.424
  C     -895.230    -291.227    -412.885
  N     -895.730    -289.869    -413.062
  C     -895.640    -289.331    -414.357
  O     -895.160    -289.994    -415.273
  N     -896.080    -288.040    -414.567
  C     -896.490    -287.330    -413.569
  N     -896.880    -286.057    -413.839
  C     -896.550    -287.847    -412.182
  C     -896.190    -289.101    -412.006
  O     -898.820    -292.386    -408.330
  O     -897.120    -290.418    -408.470
  H     -891.910    -291.084    -413.016
  H     -899.230    -293.102    -408.842
  H     -896.910    -287.202    -411.382
  H     -896.210    -289.562    -411.019
  H     -895.350    -291.767    -413.831
  H     -893.600    -290.493    -411.635
  H     -892.910    -292.725    -411.033
  H     -895.460    -293.870    -411.397
  H     -896.810    -285.740    -414.814
  H     -894.450    -293.190    -409.161
  H     -897.170    -285.398    -413.138
  H     -894.970    -291.517    -409.486
  P     -892.620    -294.920    -412.487
  C     -894.140    -296.920    -413.120
  O     -893.600    -296.130    -412.071
  O     -891.430    -294.724    -411.603
  O     -892.130    -295.382    -413.953
  H     -891.200    -295.676    -413.874
  H     -894.768    -297.681    -412.706
  H     -893.343    -297.375    -413.670
  H     -894.716    -296.299    -413.774

 6  7  8  9  10  11  12  13  14  15  16  26  30  31  32  33  35 0
 6-311+G(2d,p)
 ****
 37  38 0
 6-311+G(2d,p)
 ****
 1  2  3  4  5  17  18  19  20  21  22  23  24  25 0
 3-21G
 ****
 27  28  29  34  36  39  40  41  42  43  44  45  46 0
 3-21G
 ****


