%nproc=1
%NoSave
%Mem=1900MB
#P OB98/GEN NMR

erre ene a

0 1
  C      409.265    1303.667    -184.313
  O      408.714    1302.861    -185.340
  H      409.449    1304.669    -184.713
  H      410.223    1303.240    -183.987
  H      408.582    1303.740    -183.469
  P      408.205    1301.402    -184.912
  C      405.825    1301.623    -185.993
  O      407.088    1300.995    -185.994
  C      405.038    1301.248    -187.256
  O      405.521    1302.049    -188.365
  C      405.161    1299.773    -187.649
  O      403.916    1299.333    -188.188
  C      406.218    1299.783    -188.740
  O      406.119    1298.645    -189.598
  C      405.923    1301.138    -189.418
  N      407.067    1301.658    -190.170
  C      406.781    1302.343    -191.359
  O      405.612    1302.482    -191.722
  N      407.817    1302.817    -192.115
  C      409.033    1302.571    -191.767
  N      410.022    1303.056    -192.565
  C      409.392    1301.809    -190.547
  C      408.363    1301.389    -189.800
  O      407.362    1301.724    -183.588
  O      409.303    1300.400    -184.720
  H      406.303    1297.843    -189.054
  H      406.775    1302.487    -183.687
  H      410.428    1301.617    -190.293
  H      408.522    1300.833    -188.885
  H      405.067    1301.039    -190.101
  H      407.217    1299.803    -188.300
  H      405.445    1299.142    -186.801
  H      403.983    1301.521    -187.091
  H      409.744    1303.552    -193.410
  H      405.935    1302.714    -185.952
  H      411.012    1302.874    -192.422
  H      405.275    1301.301    -185.097
  P      403.600    1297.773    -188.305
  C      401.828    1297.302    -186.492
  O      402.075    1297.491    -187.871
  O      404.627    1296.871    -187.678
  O      403.566    1297.535    -189.899
  H      404.014    1296.685    -190.084
  H      400.784    1297.125    -186.338
  H      402.124    1298.178    -185.953
  H      402.388    1296.461    -186.141

 6  7  8  9  10  11  12  13  14  15  16  26  30  31  32  33  35 0
 6-311+G(2d,p)
 ****
 37  38 0
 6-311+G(2d,p)
 ****
 1  2  3  4  5  17  18  19  20  21  22  23  24  25 0
 3-21G
 ****
 27  28  29  34  36  39  40  41  42  43  44  45  46 0
 3-21G
 ****


