%nproc=1
%NoSave
%Mem=1900MB
#P OB98/GEN NMR

erre ene a

0 1
  C      147.072    -117.931    -119.410
  O      146.893    -116.544    -119.614
  H      146.199    -118.325    -118.882
  H      147.959    -118.112    -118.798
  H      147.168    -118.458    -120.366
  P      147.936    -115.755    -120.546
  C      146.311    -115.955    -122.540
  O      147.629    -116.192    -122.059
  C      146.337    -114.872    -123.619
  O      147.186    -115.279    -124.716
  C      144.974    -114.577    -124.239
  O      144.174    -113.801    -123.362
  C      145.390    -113.867    -125.522
  O      145.717    -112.495    -125.265
  C      146.655    -114.672    -125.921
  N      146.397    -115.686    -126.942
  C      146.454    -115.259    -128.268
  O      146.669    -114.086    -128.588
  N      146.233    -116.226    -129.220
  C      145.892    -117.525    -128.974
  O      145.653    -118.340    -129.865
  C      145.808    -117.912    -127.557
  C      146.058    -116.989    -126.621
  O      149.372    -115.856    -120.144
  O      147.413    -114.240    -120.497
  H      144.870    -112.022    -125.141
  H      147.957    -113.725    -119.869
  H      146.262    -115.933    -130.184
  H      145.532    -118.937    -127.327
  H      146.004    -117.259    -125.572
  H      147.431    -113.994    -126.298
  H      144.606    -113.870    -126.281
  H      144.465    -115.517    -124.503
  H      146.768    -113.960    -123.177
  H      145.684    -115.622    -121.703
  H      145.906    -116.892    -122.942
  P      142.578    -113.820    -123.477
  C      142.434    -115.626    -121.658
  O      142.072    -115.271    -122.989
  O      142.032    -113.382    -124.800
  O      142.093    -112.848    -122.299
  H      141.784    -111.999    -122.672
  H      142.053    -116.600    -121.433
  H      142.021    -114.914    -120.974
  H      143.500    -115.630    -121.567

 6  7  8  9  10  11  12  13  14  15  16  26  31  32  33  34  35 0
 6-311+G(2d,p)
 ****
 36  37 0
 6-311+G(2d,p)
 ****
 1  2  3  4  5  17  18  19  20  21  22  23  24  25 0
 3-21G
 ****
 27  28  29  30  38  39  40  41  42  43  44  45 0
 3-21G
 ****


