%nproc=1
%NoSave
%Mem=1900MB
#P OB98/GEN NMR

erre ene a

0 1
  C        2.931     -31.838     198.440
  O        1.775     -31.027     198.358
  P        0.588     -31.380     197.342
  C       -1.338     -33.067     197.310
  O       -0.018     -32.804     197.761
  C       -1.551     -34.558     197.049
  O       -0.803     -34.952     195.865
  C       -1.117     -35.469     198.205
  O       -2.065     -36.540     198.281
  C        0.233     -35.985     197.744
  O        0.599     -37.197     198.391
  C        0.000     -36.092     196.235
  N        1.243     -36.131     195.480
  C        1.508     -37.298     194.759
  O        0.777     -38.278     194.879
  N        2.603     -37.320     193.931
  C        3.458     -36.340     193.972
  N        4.494     -36.371     193.090
  C        3.337     -35.208     194.913
  C        2.194     -35.144     195.599
  O        0.935     -31.254     195.895
  O       -0.586     -30.358     197.738
  H       -0.872     -29.880     196.935
  H        0.425     -37.110     199.352
  H        4.131     -34.482     194.998
  H        1.998     -34.333     196.294
  H       -0.586     -36.991     195.996
  H        1.006     -35.236     197.961
  H       -1.084     -34.948     199.165
  H       -2.617     -34.717     196.824
  H        4.520     -37.139     192.432
  H       -1.502     -32.515     196.382
  H        5.006     -35.528     192.829
  H       -2.066     -32.698     198.044
  P       -2.353     -37.204     199.719
  C       -3.327     -36.309     201.951
  O       -2.629     -36.015     200.758
  O       -0.884     -37.693     200.150
  O       -3.298     -38.361     199.743
  H       -0.966     -38.433     200.778
  H       -3.482     -35.380     202.502
  H       -2.745     -36.992     202.575
  H       -4.303     -36.751     201.729
  H        3.599     -31.435     199.172
  H        3.418     -31.862     197.488
  H        2.651     -32.831     198.722

 3  4  5  6  7  8  9  10  11  12  13  24  27  28  29  30  32 0
 6-311+G(2d,p)
 ****
 34  35 0
 6-311+G(2d,p)
 ****
 1  2  14  15  16  17  18  19  20  21  22  23  25  26 0
 3-21G
 ****
 31  33  36  37  38  39  40  41  42  43  44  45  46 0
 3-21G
 ****


