%nproc=1
%NoSave
%Mem=1900MB
#P OB98/GEN NMR

erre ene a

0 1
  C     -223.572     248.062     -55.082
  O     -222.802     247.400     -56.061
  H     -223.184     249.080     -54.969
  H     -223.492     247.552     -54.116
  H     -224.617     248.120     -55.389
  P     -223.031     245.825     -56.298
  C     -220.474     245.597     -56.293
  O     -221.671     245.316     -57.006
  C     -219.234     245.292     -57.137
  O     -218.905     243.882     -57.034
  C     -219.402     245.619     -58.628
  O     -218.254     246.338     -59.093
  C     -219.476     244.252     -59.293
  O     -219.090     244.300     -60.663
  C     -218.581     243.424     -58.364
  N     -218.786     241.985     -58.509
  C     -217.903     241.314     -59.359
  O     -217.032     241.936     -59.974
  N     -218.050     239.957     -59.532
  C     -219.022     239.336     -58.944
  N     -219.123     238.000     -59.159
  C     -220.009     240.017     -58.072
  C     -219.827     241.329     -57.895
  O     -224.285     245.478     -57.024
  O     -222.934     245.183     -54.835
  H     -219.649     244.964     -61.121
  H     -223.369     244.289     -54.838
  H     -220.811     239.462     -57.616
  H     -220.498     241.906     -57.264
  H     -217.517     243.645     -58.549
  H     -220.510     243.878     -59.242
  H     -220.287     246.217     -58.845
  H     -218.378     245.831     -56.708
  H     -218.429     237.570     -59.760
  H     -220.464     244.998     -55.373
  H     -219.848     237.416     -58.759
  H     -220.471     246.664     -56.030
  P     -218.522     247.818     -59.653
  C     -217.120     247.396     -61.796
  O     -217.313     248.202     -60.641
  O     -218.282     248.745     -58.375
  O     -219.888     248.000     -60.224
  H     -219.133     249.003     -57.979
  H     -216.286     247.767     -62.355
  H     -218.000     247.428     -62.404
  H     -216.929     246.386     -61.498

 6  7  8  9  10  11  12  13  14  15  16  26  30  31  32  33  35 0
 6-311+G(2d,p)
 ****
 37  38 0
 6-311+G(2d,p)
 ****
 1  2  3  4  5  17  18  19  20  21  22  23  24  25 0
 3-21G
 ****
 27  28  29  34  36  39  40  41  42  43  44  45  46 0
 3-21G
 ****


