%nproc=1
%NoSave
%Mem=1900MB
#P OB98/GEN NMR

erre ene a

0 1
  C       37.216     397.960    -122.686
  O       36.034     398.139    -123.468
  P       35.888     399.548    -124.220
  C       36.934     399.308    -126.584
  O       35.755     399.261    -125.794
  C       36.647     398.846    -128.015
  O       36.427     397.423    -128.096
  C       35.404     399.494    -128.621
  O       35.718     400.802    -129.075
  C       35.079     398.531    -129.754
  O       35.857     398.818    -130.934
  C       35.480     397.167    -129.167
  N       31.168     394.779    -130.355
  C       31.954     395.621    -131.118
  N       31.546     395.837    -132.387
  N       33.044     396.196    -130.679
  C       33.331     395.890    -129.391
  C       32.646     395.048    -128.543
  C       31.439     394.419    -129.043
  O       30.723     393.649    -128.412
  N       33.277     394.935    -127.330
  C       34.268     395.802    -127.405
  N       34.383     396.361    -128.655
  O       37.341     400.201    -124.069
  O       34.827     400.428    -123.640
  H       35.625     398.181    -131.630
  H       37.301     400.958    -123.453
  H       30.335     394.369    -130.745
  H       34.943     396.045    -126.599
  H       35.996     396.547    -129.909
  H       34.027     398.601    -130.053
  H       30.723     395.424    -132.795
  H       34.591     399.511    -127.891
  H       32.115     396.444    -132.968
  H       37.527     399.088    -128.622
  H       37.707     398.679    -126.141
  H       37.319     400.335    -126.577
  P       34.707     401.986    -128.696
  C       36.629     403.555    -127.933
  O       35.519     403.360    -128.789
  O       34.479     401.777    -127.121
  O       33.409     401.955    -129.434
  H       33.528     401.872    -126.913
  H       37.348     404.215    -128.431
  H       37.123     402.610    -127.687
  H       36.290     404.035    -127.012
  H       37.202     396.990    -122.236
  H       37.254     398.708    -121.921
  H       38.077     398.049    -123.315

 3  4  5  6  7  8  9  10  11  12  23  26  30  31 0
 6-311+G(2d,p)
 ****
 33  35  36  37  38 0
 6-311+G(2d,p)
 ****
 1  2  13  14  15  16  17  18  19  20  21  22  24  25 0
 3-21G
 ****
 27  28  29  32  34  39  40  41  42  43  44  45  46  47  48  49 0
 3-21G
 ****


