%nproc=1
%NoSave
%Mem=1900MB
#P OB98/GEN NMR

erre ene a

0 1
  C      456.438    -268.577    -442.778
  O      455.307    -269.420    -442.868
  H      456.998    -268.835    -441.875
  H      456.132    -267.529    -442.711
  H      457.091    -268.716    -443.646
  P      454.319    -269.232    -444.114
  C      453.624    -271.714    -443.960
  O      453.190    -270.360    -443.956
  C      452.426    -272.646    -444.071
  O      451.644    -272.324    -445.238
  C      452.798    -274.123    -444.192
  O      453.093    -274.665    -442.914
  C      451.522    -274.680    -444.801
  O      450.509    -274.798    -443.783
  C      451.146    -273.573    -445.799
  N      450.213    -274.988    -450.575
  C      449.391    -275.016    -449.465
  N      448.159    -275.536    -449.646
  N      449.754    -274.592    -448.281
  C      451.035    -274.165    -448.235
  C      451.948    -274.102    -449.262
  C      451.521    -274.524    -450.581
  O      452.209    -274.498    -451.596
  N      453.176    -273.673    -448.823
  C      452.989    -273.438    -447.536
  N      451.712    -273.735    -447.129
  O      454.956    -269.202    -445.470
  O      453.535    -267.876    -443.788
  H      450.930    -275.232    -443.020
  H      453.979    -267.107    -444.188
  H      449.881    -275.347    -451.455
  H      453.743    -273.054    -446.862
  H      450.062    -273.469    -445.919
  H      451.652    -275.666    -445.245
  H      447.940    -276.126    -450.440
  H      453.617    -274.280    -444.901
  H      447.561    -275.615    -448.834
  H      451.783    -272.474    -443.198
  H      454.162    -271.892    -443.023
  H      454.307    -271.890    -444.795
  P      454.002    -275.980    -442.763
  C      454.781    -275.172    -440.434
  O      454.147    -276.204    -441.182
  O      455.293    -275.941    -443.506
  O      453.044    -277.179    -443.194
  H      453.063    -277.374    -444.165
  H      454.812    -275.448    -439.401
  H      454.230    -274.262    -440.544
  H      455.778    -275.031    -440.795

 6  7  8  9  10  11  12  13  14  15  26  29  33  34 0
 6-311+G(2d,p)
 ****
 36  38  39  40  41 0
 6-311+G(2d,p)
 ****
 1  2  3  4  5  16  17  18  19  20  21  22  23  24  25 0
 3-21G
 ****
 27  28  30  31  32  35  37  42  43  44  45  46  47 0
 3-21G
 ****
 48  49 0
 3-21G
 ****


