%nproc=1
%NoSave
%Mem=1900MB
#P OB98/GEN NMR

erre ene a

0 1
  C      -23.453     -36.397     107.893
  O      -22.968     -35.866     109.109
  P      -22.948     -34.282     109.356
  C      -22.120     -35.155     111.637
  O      -22.782     -34.101     110.944
  C      -22.199     -34.945     113.149
  O      -21.508     -33.740     113.530
  C      -23.617     -34.798     113.683
  O      -24.256     -36.059     113.759
  C      -23.357     -34.135     115.028
  O      -23.002     -35.105     116.027
  C      -22.157     -33.217     114.710
  N      -22.552     -31.825     114.538
  C      -22.777     -31.104     115.717
  O      -22.672     -31.654     116.813
  N      -23.164     -29.789     115.621
  C      -23.334     -29.253     114.452
  N      -23.730     -27.952     114.422
  C      -23.138     -29.988     113.187
  C      -22.753     -31.257     113.303
  O      -24.075     -33.526     108.739
  O      -21.511     -33.847     108.797
  H      -22.823     -34.600     116.845
  H      -21.491     -33.855     107.809
  H      -23.303     -29.502     112.237
  H      -22.589     -31.871     112.426
  H      -21.413     -33.264     115.516
  H      -24.236     -33.599     115.400
  H      -24.186     -34.114     113.041
  H      -21.698     -35.793     113.636
  H      -23.883     -27.494     115.312
  H      -21.070     -35.164     111.329
  H      -23.927     -27.451     113.571
  H      -22.570     -36.112     111.354
  P      -25.312     -36.488     112.637
  C      -27.464     -36.929     113.961
  O      -26.352     -37.506     113.305
  O      -24.722     -36.938     111.341
  O      -26.190     -35.164     112.426
  H      -26.323     -35.019     111.471
  H      -28.240     -37.690     114.071
  H      -27.867     -36.090     113.387
  H      -27.163     -36.582     114.952
  H      -23.386     -37.465     107.918
  H      -22.866     -36.022     107.081
  H      -24.474     -36.107     107.759

 3  4  5  6  7  8  9  10  11  12  13  23  27  28  29  30  32 0
 6-311+G(2d,p)
 ****
 34  35 0
 6-311+G(2d,p)
 ****
 1  2  14  15  16  17  18  19  20  21  22  24  25  26 0
 3-21G
 ****
 31  33  36  37  38  39  40  41  42  43  44  45  46 0
 3-21G
 ****


