%nproc=1
%NoSave
%Mem=1900MB
#P OB98/GEN NMR

erre ene a

0 1
  C       70.990      78.928    -126.496
  O       69.677      78.809    -127.007
  H       71.558      79.657    -127.080
  H       70.933      79.274    -125.460
  H       71.495      77.957    -126.516
  P       69.540      78.282    -128.516
  C       70.446      79.271    -130.738
  O       69.886      79.533    -129.460
  C       71.277      80.464    -131.202
  O       72.422      80.640    -130.343
  C       71.840      80.339    -132.615
  O       70.866      80.648    -133.602
  C       72.944      81.383    -132.574
  O       72.376      82.696    -132.744
  C       73.482      81.223    -131.144
  N       78.597      81.135    -131.018
  C       77.713      82.157    -131.025
  N       76.365      82.100    -131.039
  C       75.944      80.824    -131.025
  C       76.723      79.680    -130.993
  C       78.116      79.866    -130.998
  N       79.014      78.812    -131.058
  N       75.932      78.548    -131.005
  C       74.696      79.003    -131.058
  N       74.654      80.372    -131.064
  O       67.956      78.100    -128.687
  O       70.278      77.019    -128.818
  H       71.804      82.857    -131.971
  H       67.723      77.165    -128.536
  H       78.145      83.151    -131.023
  H       73.811      78.385    -131.097
  H       73.738      82.187    -130.688
  H       73.693      81.250    -133.361
  H       72.286      79.352    -132.784
  H       70.654      81.365    -131.112
  H       69.641      79.089    -131.459
  H       79.890      79.050    -131.514
  H       78.597      77.921    -131.308
  H       71.073      78.377    -130.669
  P       71.355      80.758    -135.126
  C       72.567      82.544    -136.550
  O       72.169      82.136    -135.248
  O       69.991      81.048    -135.914
  O       72.042      79.549    -135.661
  H       69.863      80.372    -136.609
  H       73.097      83.471    -136.487
  H       71.700      82.670    -137.165
  H       73.203      81.798    -136.979

 6  7  8  9  10  11  12  13  14  15  25  28  32  33  34  35 0
 6-311+G(2d,p)
 ****
 36  39  40 0
 6-311+G(2d,p)
 ****
 1  2  3  4  5  16  17  18  19  20  21  22  23  24 0
 3-21G
 ****
 26  27  29  30  31  37  38  41  42  43  44  45  46  47  48 0
 3-21G
 ****


