%nproc=1
%NoSave
%Mem=1900MB
#P OB98/GEN NMR

erre ene a

0 1
  C      179.185      89.742     109.517
  O      177.805      89.780     109.215
  H      179.412      88.790     110.004
  H      179.447      90.556     110.199
  H      179.773      89.820     108.601
  P      177.247      91.129     108.544
  C      176.336      91.807     110.884
  O      177.073      92.195     109.732
  C      174.843      91.895     110.593
  O      174.090      91.482     111.756
  C      174.354      93.302     110.275
  O      174.657      93.686     108.942
  C      172.862      93.153     110.523
  O      172.187      92.607     109.375
  C      172.817      92.167     111.710
  N      172.512      92.837     112.972
  C      171.161      92.988     113.261
  O      170.259      92.595     112.516
  N      170.867      93.650     114.424
  C      171.777      94.196     115.288
  O      171.446      94.841     116.278
  C      173.194      93.993     114.934
  C      173.492      93.341     113.807
  O      175.744      90.742     108.153
  O      178.026      91.620     107.370
  H      175.684      90.565     107.196
  H      171.232      92.711     109.552
  H      169.894      93.779     114.649
  H      173.941      94.405     115.604
  H      174.531      93.198     113.516
  H      172.053      91.398     111.541
  H      172.393      94.115     110.737
  H      174.763      94.020     110.997
  H      174.607      91.208     109.767
  H      176.582      92.476     111.716
  H      176.622      90.785     111.159
  P      174.754      95.249     108.599
  C      172.289      95.526     107.724
  O      173.264      95.839     108.706
  O      175.047      95.203     107.026
  O      175.772      95.979     109.410
  H      174.584      94.478     106.577
  H      171.367      96.010     107.970
  H      172.139      94.467     107.695
  H      172.626      95.865     106.766

 6  7  8  9  10  11  12  13  14  15  16  27  31  32  33  34  35 0
 6-311+G(2d,p)
 ****
 36  37 0
 6-311+G(2d,p)
 ****
 1  2  3  4  5  17  18  19  20  21  22  23  24  25 0
 3-21G
 ****
 26  28  29  30  38  39  40  41  42  43  44  45 0
 3-21G
 ****


