%nproc=1
%NoSave
%Mem=1900MB
#P OB98/GEN NMR

erre ene a

0 1
  C      634.661     560.322    -732.081
  O      633.728     559.251    -732.149
  P      634.180     557.829    -731.555
  C      633.010     556.039    -730.065
  O      633.048     557.399    -730.505
  C      631.977     555.862    -728.961
  O      632.286     556.748    -727.848
  C      630.544     556.211    -729.350
  O      629.906     555.141    -730.045
  C      629.903     556.425    -727.989
  O      629.601     555.159    -727.388
  C      631.056     557.119    -727.221
  N      631.158     561.339    -724.317
  C      631.253     560.026    -723.993
  N      631.183     558.964    -724.807
  C      630.992     559.352    -726.105
  C      630.861     560.664    -726.549
  C      630.957     561.689    -725.593
  N      630.907     563.026    -725.942
  N      630.673     560.682    -727.931
  C      630.713     559.399    -728.292
  N      630.919     558.565    -727.208
  O      635.441     558.196    -730.627
  O      634.538     556.805    -732.599
  H      630.440     554.639    -727.359
  H      636.007     557.421    -730.511
  H      631.359     559.808    -722.928
  H      630.607     559.025    -729.299
  H      631.090     556.788    -726.169
  H      628.971     556.990    -728.052
  H      630.515     557.156    -729.933
  H      632.048     554.826    -728.614
  H      633.996     555.749    -729.704
  H      631.164     563.693    -725.230
  H      630.965     563.285    -726.890
  H      632.765     555.413    -730.931
  P      628.519     555.470    -730.761
  C      627.360     554.530    -732.902
  O      628.548     554.686    -732.151
  O      628.658     556.996    -731.177
  O      627.294     555.223    -729.879
  H      627.766     557.435    -731.247
  H      627.600     554.277    -733.914
  H      626.774     555.489    -732.911
  H      626.722     553.751    -732.464
  H      634.227     561.201    -732.511
  H      635.546     560.059    -732.623
  H      634.912     560.512    -731.058

 3  4  5  6  7  8  9  10  11  12  22  25  29  30  31  32 0
 6-311+G(2d,p)
 ****
 33  36  37 0
 6-311+G(2d,p)
 ****
 1  2  13  14  15  16  17  18  19  20  21  23  24  26 0
 3-21G
 ****
 27  28  34  35  38  39  40  41  42  43  44  45  46  47  48 0
 3-21G
 ****


