%nproc=1
%NoSave
%Mem=1900MB
#P OB98/GEN NMR

erre ene a

0 1
  C        5.597       7.032     -45.713
  O        4.833       5.855     -45.894
  H        6.563       6.900     -46.205
  H        5.765       7.214     -44.648
  H        5.084       7.885     -46.165
  P        3.382       5.829     -45.212
  C        4.109       3.833     -43.733
  O        3.630       5.170     -43.770
  C        3.912       3.233     -42.344
  O        4.517       4.075     -41.348
  C        2.455       3.064     -41.933
  O        1.926       1.859     -42.464
  C        2.586       2.993     -40.420
  O        2.976       1.662     -40.030
  C        3.732       3.978     -40.131
  N        1.934       6.889     -36.305
  C        2.070       5.552     -36.425
  N        2.503       4.842     -37.489
  C        2.825       5.658     -38.506
  C        2.736       7.042     -38.530
  C        2.271       7.665     -37.360
  N        2.131       9.031     -37.242
  N        3.148       7.540     -39.748
  C        3.537       6.480     -40.425
  N        3.327       5.314     -39.732
  O        2.291       5.228     -46.032
  O        3.186       7.378     -44.853
  H        2.241       1.069     -40.278
  H        4.016       7.759     -44.518
  H        1.791       4.972     -35.550
  H        3.993       6.501     -41.408
  H        4.397       3.607     -39.342
  H        1.650       3.214     -39.905
  H        1.852       3.939     -42.201
  H        4.437       2.269     -42.316
  H        5.171       3.804     -44.001
  H        1.614       9.374     -36.449
  H        2.260       9.592     -38.072
  H        3.549       3.259     -44.479
  P        0.344       1.598     -42.507
  C        0.470      -0.550     -41.101
  O        0.019       0.798     -41.156
  O       -0.145       0.972     -43.766
  O       -0.301       3.036     -42.237
  H       -1.241       3.034     -42.503
  H        0.198      -0.979     -40.159
  H        1.534      -0.575     -41.210
  H        0.017      -1.110     -41.892

 6  7  8  9  10  11  12  13  14  15  25  28  32  33  34  35 0
 6-311+G(2d,p)
 ****
 36  39  40 0
 6-311+G(2d,p)
 ****
 1  2  3  4  5  16  17  18  19  20  21  22  23  24 0
 3-21G
 ****
 26  27  29  30  31  37  38  41  42  43  44  45  46  47 0
 3-21G
 ****
 48 0
 3-21G
 ****


