%nproc=1
%NoSave
%Mem=1900MB
#P OB98/GEN NMR

erre ene a

0 1
  C      -17.704     -60.520     404.047
  O      -16.492     -60.935     403.449
  H      -17.649     -60.714     405.123
  H      -18.539     -61.088     403.630
  H      -17.863     -59.450     403.887
  P      -16.291     -60.585     401.900
  C      -14.829     -58.478     402.466
  O      -15.970     -59.013     401.805
  C      -13.964     -57.708     401.468
  O      -13.172     -58.604     400.662
  C      -14.762     -56.912     400.447
  O      -15.393     -55.782     401.009
  C      -13.666     -56.576     399.445
  O      -12.864     -55.481     399.904
  C      -12.848     -57.891     399.439
  N      -13.108     -58.701     398.257
  C      -12.910     -58.066     397.023
  O      -12.530     -56.894     396.986
  N      -13.176     -58.762     395.872
  C      -13.578     -59.995     395.941
  N      -13.834     -60.625     394.764
  C      -13.773     -60.710     397.216
  C      -13.528     -60.010     398.324
  O      -17.781     -60.675     401.325
  O      -15.297     -61.432     401.179
  H      -12.523     -55.738     400.782
  H      -18.421     -60.132     401.814
  H      -14.100     -61.739     397.225
  H      -13.647     -60.461     399.299
  H      -11.772     -57.676     399.473
  H      -14.074     -56.287     398.475
  H      -15.489     -57.561     399.945
  H      -13.281     -57.063     402.039
  H      -13.708     -60.094     393.910
  H      -14.250     -59.270     402.947
  H      -14.180     -61.570     394.695
  H      -15.187     -57.806     403.251
  P      -16.851     -55.334     400.516
  C      -18.085     -56.800     402.232
  O      -17.835     -56.556     400.851
  O      -16.923     -54.850     399.103
  O      -17.284     -54.241     401.600
  H      -17.325     -54.569     402.517
  H      -18.750     -57.632     402.332
  H      -18.530     -55.933     402.673
  H      -17.163     -57.019     402.728

 6  7  8  9  10  11  12  13  14  15  16  26  30  31  32  33  35 0
 6-311+G(2d,p)
 ****
 37  38 0
 6-311+G(2d,p)
 ****
 1  2  3  4  5  17  18  19  20  21  22  23  24  25 0
 3-21G
 ****
 27  28  29  34  36  39  40  41  42  43  44  45  46 0
 3-21G
 ****


