%nproc=1
%NoSave
%Mem=1900MB
#P OB98/GEN NMR

erre ene a

0 1
  C      181.802     -23.695    -137.281
  O      180.628     -23.029    -137.704
  H      181.612     -24.771    -137.277
  H      182.073     -23.380    -136.269
  H      182.622     -23.484    -137.972
  P      180.686     -21.426    -137.746
  C      178.969     -21.701    -139.664
  O      179.327     -20.997    -138.482
  C      177.739     -21.070    -140.310
  O      177.980     -19.682    -140.591
  C      177.327     -21.709    -141.631
  O      176.540     -22.865    -141.400
  C      176.501     -20.589    -142.248
  O      175.173     -20.604    -141.688
  C      177.247     -19.324    -141.790
  N      178.816     -15.045    -144.153
  C      177.747     -15.294    -143.369
  N      177.360     -16.466    -142.820
  C      178.217     -17.449    -143.143
  C      179.350     -17.345    -143.937
  C      179.647     -16.072    -144.451
  N      180.740     -15.822    -145.253
  N      179.982     -18.565    -144.055
  C      179.276     -19.378    -143.295
  N      178.177     -18.760    -142.752
  O      181.944     -20.838    -138.290
  O      180.376     -21.070    -136.216
  H      174.754     -21.435    -141.980
  H      179.679     -21.652    -135.864
  H      177.112     -14.438    -143.155
  H      179.526     -20.413    -143.091
  H      176.553     -18.519    -141.522
  H      176.392     -20.694    -143.327
  H      178.191     -21.911    -142.272
  H      176.916     -21.117    -139.583
  H      178.767     -22.753    -139.430
  H      180.767     -14.934    -145.728
  H      181.279     -16.612    -145.575
  H      179.823     -21.657    -140.347
  P      176.851     -24.245    -142.158
  C      175.322     -25.467    -140.491
  O      175.581     -25.177    -141.859
  O      178.181     -24.837    -141.841
  O      176.682     -23.890    -143.706
  H      177.102     -24.582    -144.255
  H      174.457     -26.092    -140.417
  H      175.150     -24.555    -139.959
  H      176.165     -25.973    -140.068

 6  7  8  9  10  11  12  13  14  15  25  28  32  33  34  35 0
 6-311+G(2d,p)
 ****
 36  39  40 0
 6-311+G(2d,p)
 ****
 1  2  3  4  5  16  17  18  19  20  21  22  23  24 0
 3-21G
 ****
 26  27  29  30  31  37  38  41  42  43  44  45  46  47 0
 3-21G
 ****
 48 0
 3-21G
 ****


