%nproc=1
%NoSave
%Mem=1900MB
#P OB98/GEN NMR

erre ene a

0 1
  C     -395.571     -89.934     -22.875
  O     -395.335     -91.305     -22.633
  H     -396.349     -89.586     -22.192
  H     -395.918     -89.788     -23.901
  H     -394.666     -89.345     -22.702
  P     -394.097     -92.017     -23.361
  C     -392.802     -91.951     -21.132
  O     -392.785     -91.641     -22.519
  C     -391.409     -91.761     -20.541
  O     -391.451     -91.920     -19.106
  C     -390.380     -92.771     -21.038
  O     -389.955     -92.454     -22.349
  C     -389.309     -92.634     -19.966
  O     -388.490     -91.480     -20.208
  C     -390.170     -92.444     -18.693
  N     -390.332     -93.673     -17.920
  C     -389.389     -93.905     -16.921
  O     -388.441     -93.154     -16.708
  N     -389.569     -95.048     -16.187
  C     -390.522     -95.999     -16.404
  O     -390.606     -97.034     -15.749
  C     -391.468     -95.718     -17.494
  C     -391.332     -94.586     -18.189
  O     -393.986     -91.785     -24.832
  O     -394.306     -93.569     -23.025
  H     -387.926     -91.694     -20.978
  H     -394.706     -94.021     -23.791
  H     -388.890     -95.239     -15.468
  H     -392.235     -96.451     -17.699
  H     -392.017     -94.363     -19.001
  H     -389.717     -91.687     -18.040
  H     -388.638     -93.492     -19.928
  H     -390.791     -93.785     -20.994
  H     -391.082     -90.736     -20.757
  H     -393.112     -92.995     -21.009
  H     -393.527     -91.303     -20.633
  P     -388.877     -93.366     -23.102
  C     -390.850     -94.593     -24.180
  O     -389.605     -94.738     -23.509
  O     -387.578     -93.539     -22.388
  O     -388.668     -92.636     -24.509
  H     -387.803     -92.180     -24.522
  H     -391.249     -95.560     -24.405
  H     -390.704     -94.047     -25.089
  H     -391.534     -94.063     -23.551

 6  7  8  9  10  11  12  13  14  15  16  26  31  32  33  34  35 0
 6-311+G(2d,p)
 ****
 36  37 0
 6-311+G(2d,p)
 ****
 1  2  3  4  5  17  18  19  20  21  22  23  24  25 0
 3-21G
 ****
 27  28  29  30  38  39  40  41  42  43  44  45 0
 3-21G
 ****


