%nproc=1
%NoSave
%Mem=1900MB
#P OB98/GEN NMR

erre ene a

0 1
  C      444.814     109.764    -390.349
  O      445.420     110.475    -389.287
  H      444.838     110.362    -391.267
  H      445.366     108.833    -390.521
  H      443.777     109.518    -390.094
  P      444.779     111.891    -388.904
  C      443.926     111.391    -386.492
  O      444.923     112.001    -387.308
  C      444.285     111.589    -385.024
  O      445.394     110.735    -384.666
  C      444.727     113.013    -384.684
  O      443.635     113.890    -384.477
  C      445.492     112.770    -383.393
  O      444.567     112.574    -382.309
  C      446.226     111.454    -383.710
  N      451.104     112.663    -382.718
  C      450.034     112.492    -381.908
  N      448.773     112.151    -382.249
  C      448.676     111.965    -383.575
  C      449.677     112.106    -384.520
  C      450.948     112.473    -384.046
  N      452.034     112.685    -384.869
  N      449.185     111.860    -385.790
  C      447.911     111.567    -385.611
  N      447.547     111.654    -384.290
  O      443.202     111.665    -389.103
  O      445.298     113.070    -389.653
  H      445.098     112.414    -381.503
  H      442.734     112.522    -389.116
  H      450.210     112.654    -380.846
  H      447.213     111.305    -386.393
  H      446.348     110.816    -382.831
  H      446.140     113.607    -383.120
  H      445.420     113.409    -385.433
  H      443.424     111.292    -384.413
  H      443.882     110.320    -386.721
  H      452.857     113.092    -384.457
  H      451.888     112.686    -385.869
  H      442.951     111.848    -386.708
  P      443.387     115.043    -385.568
  C      441.610     114.046    -387.178
  O      441.870     114.892    -386.064
  O      444.239     114.536    -386.826
  O      443.795     116.413    -385.122
  H      444.603     115.294    -387.331
  H      440.561     114.047    -387.389
  H      441.928     113.050    -386.951
  H      442.146     114.405    -388.032

 6  7  8  9  10  11  12  13  14  15  25  28  32  33  34  35 0
 6-311+G(2d,p)
 ****
 36  39  40 0
 6-311+G(2d,p)
 ****
 1  2  3  4  5  16  17  18  19  20  21  22  23  24 0
 3-21G
 ****
 26  27  29  30  31  37  38  41  42  43  44  45  46  47 0
 3-21G
 ****
 48 0
 3-21G
 ****


