%nproc=1
%NoSave
%Mem=1900MB
#P OB98/GEN NMR

erre ene a

0 1
  C      881.871     -66.616    -555.039
  O      881.594     -66.258    -553.691
  P      880.873     -64.871    -553.363
  C      879.032     -66.090    -551.984
  O      880.023     -65.084    -552.021
  C      878.245     -66.045    -550.654
  O      879.128     -66.488    -549.604
  C      877.785     -64.651    -550.249
  O      876.742     -64.792    -549.272
  C      879.020     -64.083    -549.581
  O      878.728     -62.994    -548.716
  C      879.628     -65.342    -548.887
  N      881.104     -65.315    -548.918
  C      881.728     -64.353    -548.125
  O      881.122     -63.609    -547.359
  N      883.087     -64.233    -548.291
  C      883.829     -64.934    -549.198
  O      884.958     -64.593    -549.557
  C      883.169     -66.079    -549.839
  C      881.836     -66.196    -549.684
  O      879.750     -64.767    -554.512
  O      881.766     -63.676    -553.362
  H      879.585     -62.700    -548.325
  H      880.079     -64.221    -555.250
  H      883.513     -63.441    -547.825
  H      883.759     -66.745    -550.444
  H      881.306     -67.001    -550.191
  H      879.309     -65.413    -547.836
  H      879.712     -63.725    -550.366
  H      877.438     -64.020    -551.070
  H      877.398     -66.732    -550.713
  H      879.507     -67.069    -552.112
  H      878.334     -65.964    -552.814
  P      875.659     -63.606    -549.155
  C      873.808     -65.371    -549.337
  O      874.317     -64.293    -548.591
  O      875.491     -62.747    -550.355
  O      876.187     -62.774    -547.885
  H      875.788     -61.891    -547.896
  H      873.267     -66.051    -548.655
  H      874.604     -65.943    -549.818
  H      873.116     -65.009    -550.091
  H      882.353     -67.571    -555.063
  H      882.513     -65.882    -555.478
  H      880.955     -66.665    -555.590

 3  4  5  6  7  8  9  10  11  12  13  23  28  29  30  31  32 0
 6-311+G(2d,p)
 ****
 33  34 0
 6-311+G(2d,p)
 ****
 1  2  14  15  16  17  18  19  20  21  22  24  25  26  27 0
 3-21G
 ****
 35  36  37  38  39  40  41  42  43  44  45 0
 3-21G
 ****


