%nproc=1
%NoSave
%Mem=1900MB
#P OB98/GEN NMR

erre ene a

0 1
  C     -301.253     306.498     176.506
  O     -301.145     307.676     175.725
  P     -302.067     308.929     176.126
  C     -303.327     308.575     173.843
  O     -303.399     308.790     175.245
  C     -304.718     308.720     173.217
  O     -305.556     307.618     173.622
  C     -305.474     309.977     173.634
  O     -304.998     311.130     172.959
  C     -306.907     309.585     173.295
  O     -307.153     309.754     171.889
  C     -306.922     308.088     173.662
  N     -307.532     307.817     174.962
  C     -308.721     307.090     174.942
  O     -309.244     306.682     173.907
  N     -309.298     306.857     176.165
  C     -308.849     307.326     177.364
  O     -309.430     307.126     178.426
  C     -307.613     308.118     177.321
  C     -307.019     308.323     176.138
  O     -301.250     310.123     175.446
  O     -302.273     309.055     177.596
  H     -300.736     309.819     174.678
  H     -307.192     310.716     171.728
  H     -310.145     306.312     176.178
  H     -307.231     308.515     178.252
  H     -306.111     308.910     176.086
  H     -307.465     307.515     172.902
  H     -307.648     310.189     173.832
  H     -305.379     310.124     174.718
  H     -304.608     308.682     172.125
  H     -302.945     307.570     173.655
  H     -302.635     309.302     173.410
  P     -305.481     312.554     173.533
  C     -306.360     313.352     171.200
  O     -306.643     313.059     172.550
  O     -304.224     313.476     173.168
  O     -305.829     312.523     174.984
  H     -303.871     313.300     172.278
  H     -307.289     313.327     170.633
  H     -305.662     312.626     170.772
  H     -305.926     314.355     171.130
  H     -300.585     305.754     176.124
  H     -302.257     306.132     176.462
  H     -300.998     306.719     177.522

 3  4  5  6  7  8  9  10  11  12  13  24  28  29  30  31  32 0
 6-311+G(2d,p)
 ****
 33  34 0
 6-311+G(2d,p)
 ****
 1  2  14  15  16  17  18  19  20  21  22  23  25  26  27 0
 3-21G
 ****
 35  36  37  38  39  40  41  42  43  44  45 0
 3-21G
 ****


