%nproc=1
%NoSave
%Mem=1900MB
#P OB98/GEN NMR

erre ene a

0 1
  C     1074.820    1627.288     -99.199
  O     1073.581    1626.815     -99.691
  H     1074.738    1627.412     -98.112
  H     1075.055    1628.247     -99.643
  H     1075.603    1626.562     -99.403
  P     1073.400    1626.606    -101.270
  C     1073.437    1624.043    -100.980
  O     1074.033    1625.169    -101.607
  C     1074.398    1622.825    -101.031
  O     1075.748    1623.343    -100.772
  C     1074.076    1621.781     -99.969
  O     1073.925    1620.458    -100.511
  C     1075.154    1621.994     -98.917
  O     1075.466    1620.860     -98.129
  C     1076.334    1622.545     -99.718
  N     1077.269    1623.351     -98.945
  C     1078.269    1622.672     -98.266
  O     1078.438    1621.447     -98.260
  N     1079.128    1623.447     -97.529
  C     1079.080    1624.814     -97.405
  O     1079.886    1625.469     -96.749
  C     1078.000    1625.474     -98.153
  C     1077.141    1624.738     -98.862
  O     1073.876    1627.727    -102.118
  O     1071.838    1626.369    -101.456
  H     1074.716    1620.719     -97.521
  H     1071.416    1627.173    -101.797
  H     1079.863    1622.974     -97.019
  H     1077.899    1626.547     -98.086
  H     1076.335    1625.180     -99.432
  H     1076.885    1621.731    -100.180
  H     1074.804    1622.779     -98.209
  H     1073.096    1621.985     -99.499
  H     1074.388    1622.406    -102.042
  H     1072.507    1623.807    -101.525
  H     1073.190    1624.274     -99.938
  P     1072.662    1619.953    -101.327
  C     1073.995    1619.783    -103.564
  O     1072.894    1620.310    -102.871
  O     1071.342    1620.307    -100.725
  O     1072.822    1618.350    -101.290
  H     1071.916    1617.990    -101.268
  H     1073.980    1620.132    -104.575
  H     1073.944    1618.714    -103.555
  H     1074.900    1620.101    -103.090

 6  7  8  9  10  11  12  13  14  15  16  26  31  32  33  34  35 0
 6-311+G(2d,p)
 ****
 36  37 0
 6-311+G(2d,p)
 ****
 1  2  3  4  5  17  18  19  20  21  22  23  24  25 0
 3-21G
 ****
 27  28  29  30  38  39  40  41  42  43  44  45 0
 3-21G
 ****


