%nproc=1
%NoSave
%Mem=1900MB
#P OB98/GEN NMR

erre ene a

0 1
  C       51.323       5.820     -85.830
  O       50.486       4.794     -86.335
  P       49.925       4.954     -87.831
  C       48.340       6.716     -88.974
  O       48.901       6.186     -87.783
  C       46.844       6.980     -88.779
  O       46.158       5.740     -88.507
  C       46.509       7.896     -87.609
  O       46.754       9.259     -87.917
  C       45.042       7.551     -87.376
  O       44.210       8.246     -88.321
  C       45.023       6.036     -87.664
  N       45.038       5.218     -86.452
  C       43.809       5.021     -85.829
  O       42.755       5.494     -86.253
  N       43.835       4.271     -84.683
  C       44.949       3.766     -84.077
  O       44.921       3.139     -83.027
  C       46.223       4.036     -84.764
  C       46.208       4.738     -85.900
  O       48.997       3.656     -87.937
  O       51.005       5.048     -88.854
  H       48.666       3.375     -87.066
  H       44.490       7.944     -89.208
  H       42.952       4.094     -84.226
  H       47.129       3.660     -84.308
  H       47.137       4.953     -86.414
  H       44.132       5.771     -88.248
  H       44.698       7.825     -86.372
  H       47.096       7.606     -86.728
  H       46.446       7.392     -89.715
  H       48.484       5.999     -89.785
  H       48.863       7.644     -89.230
  P       47.518      10.123     -86.792
  C       46.978      10.654     -84.291
  O       46.510      10.233     -85.553
  O       47.496      11.581     -87.454
  O       48.883       9.611     -86.466
  H       46.644      11.795     -87.870
  H       46.127      11.005     -83.700
  H       47.702      11.468     -84.384
  H       47.441       9.811     -83.774
  H       51.618       5.580     -84.830
  H       50.790       6.748     -85.831
  H       52.193       5.907     -86.447

 3  4  5  6  7  8  9  10  11  12  13  24  28  29  30  31  32 0
 6-311+G(2d,p)
 ****
 33  34 0
 6-311+G(2d,p)
 ****
 1  2  14  15  16  17  18  19  20  21  22  23  25  26  27 0
 3-21G
 ****
 35  36  37  38  39  40  41  42  43  44  45 0
 3-21G
 ****


