%nproc=1
%NoSave
%Mem=1900MB
#P OB98/GEN NMR

erre ene a

0 1
  C     -528.305     884.148    -228.468
  O     -527.134     883.365    -228.481
  P     -527.155     881.820    -228.908
  C     -527.148     882.334    -231.432
  O     -527.893     881.799    -230.334
  C     -526.780     881.184    -232.390
  O     -528.003     880.604    -232.896
  C     -526.005     881.626    -233.646
  O     -524.599     881.735    -233.452
  C     -526.298     880.452    -234.581
  O     -525.461     879.320    -234.228
  C     -527.763     880.138    -234.251
  N     -529.908     879.921    -238.886
  C     -529.036     879.105    -238.253
  N     -528.500     879.237    -237.026
  C     -528.983     880.330    -236.420
  C     -529.877     881.271    -236.937
  C     -530.334     881.018    -238.240
  N     -531.248     881.854    -238.881
  N     -530.103     882.262    -236.026
  C     -529.388     881.939    -234.965
  N     -528.689     880.784    -235.159
  O     -527.724     880.909    -227.878
  O     -525.637     881.482    -229.277
  H     -524.548     879.552    -234.494
  H     -525.498     880.514    -229.285
  H     -528.727     878.206    -238.814
  H     -529.337     882.535    -234.066
  H     -527.973     879.051    -234.260
  H     -526.099     880.661    -235.627
  H     -526.418     882.534    -234.090
  H     -526.229     880.428    -231.844
  H     -526.232     882.768    -231.041
  H     -531.628     881.522    -239.745
  H     -531.699     882.566    -238.334
  H     -527.726     883.102    -231.934
  P     -523.776     882.680    -234.463
  C     -524.218     884.825    -233.040
  O     -524.411     884.137    -234.262
  O     -523.748     882.203    -235.886
  O     -522.343     882.780    -233.788
  H     -522.316     883.256    -232.937
  H     -524.572     885.853    -233.130
  H     -523.164     884.842    -232.745
  H     -524.798     884.353    -232.231
  H     -528.066     885.143    -228.154
  H     -529.013     883.720    -227.789
  H     -528.726     884.176    -229.451

 3  4  5  6  7  8  9  10  11  12  22  25  29  30  31  32 0
 6-311+G(2d,p)
 ****
 33  36  37 0
 6-311+G(2d,p)
 ****
 1  2  13  14  15  16  17  18  19  20  21  23  24  26 0
 3-21G
 ****
 27  28  34  35  38  39  40  41  42  43  44  45  46  47  48 0
 3-21G
 ****


