%nproc=1
%NoSave
%Mem=1900MB
#P OB98/GEN NMR

erre ene a

0 1
  C     -366.174     198.640    -343.251
  O     -367.269     199.527    -343.226
  P     -368.738     199.076    -343.698
  C     -368.906     201.202    -345.134
  O     -369.501     200.428    -344.099
  C     -369.655     202.515    -345.345
  O     -370.912     202.256    -346.031
  C     -369.978     203.286    -344.057
  O     -369.916     204.675    -344.383
  C     -371.416     202.875    -343.791
  O     -372.087     203.770    -342.912
  C     -371.970     202.805    -345.219
  N     -373.195     202.012    -345.297
  C     -374.278     202.591    -345.970
  O     -374.194     203.744    -346.393
  N     -375.437     201.873    -346.091
  C     -375.541     200.716    -345.515
  N     -376.711     200.045    -345.670
  C     -374.466     200.127    -344.686
  C     -373.334     200.814    -344.638
  O     -369.466     198.201    -342.734
  O     -368.482     198.384    -345.115
  H     -371.527     203.910    -342.117
  H     -368.106     197.474    -344.991
  H     -374.621     199.186    -344.170
  H     -372.484     200.459    -344.052
  H     -372.184     203.820    -345.602
  H     -371.439     201.879    -343.331
  H     -369.313     203.052    -343.227
  H     -369.047     203.153    -346.014
  H     -377.418     200.477    -346.257
  H     -368.942     200.618    -346.055
  H     -376.868     199.107    -345.330
  H     -367.848     201.389    -344.901
  P     -368.782     205.628    -343.758
  C     -370.495     207.521    -343.626
  O     -369.210     207.140    -344.080
  O     -367.378     205.280    -344.150
  O     -368.993     205.512    -342.180
  H     -368.209     205.851    -341.714
  H     -370.570     208.620    -343.638
  H     -370.672     207.179    -342.598
  H     -371.257     207.110    -344.288
  H     -365.299     199.144    -342.897
  H     -366.011     198.303    -344.253
  H     -366.381     197.800    -342.621

 3  4  5  6  7  8  9  10  11  12  13  23  27  28  29  30  32 0
 6-311+G(2d,p)
 ****
 34  35 0
 6-311+G(2d,p)
 ****
 1  2  14  15  16  17  18  19  20  21  22  24  25  26 0
 3-21G
 ****
 31  33  36  37  38  39  40  41  42  43  44  45  46 0
 3-21G
 ****


