%nproc=1
%NoSave
%Mem=1900MB
#P OB98/GEN NMR

erre ene a

0 1
  C     -146.321     176.743      50.367
  O     -145.243     175.997      49.788
  P     -145.266     175.671      48.219
  C     -145.969     173.733      46.682
  O     -145.673     174.132      48.014
  C     -146.735     172.402      46.627
  O     -145.971     171.344      47.263
  C     -148.115     172.441      47.298
  O     -148.976     171.595      46.523
  C     -147.833     171.825      48.650
  O     -149.013     171.364      49.295
  C     -146.821     170.740      48.258
  N     -146.060     170.251      49.394
  C     -146.506     169.079      50.009
  O     -147.561     168.556      49.648
  N     -145.756     168.543      51.027
  C     -144.739     169.203      51.493
  N     -144.015     168.638      52.491
  C     -144.353     170.540      50.994
  C     -145.030     170.988      49.939
  O     -144.066     176.117      47.452
  O     -146.583     176.451      47.720
  H     -149.389     170.617      48.780
  H     -146.426     176.788      46.818
  H     -143.558     171.097      51.467
  H     -144.814     171.942      49.491
  H     -147.335     169.889      47.787
  H     -147.361     172.569      49.304
  H     -148.554     173.444      47.343
  H     -146.847     172.131      45.565
  H     -144.308     167.732      52.848
  H     -145.036     173.636      46.118
  H     -143.177     169.073      52.875
  H     -146.537     174.537      46.191
  P     -149.896     172.251      45.383
  C     -152.445     172.740      45.193
  O     -151.314     172.611      46.032
  O     -150.266     170.972      44.482
  O     -149.240     173.298      44.533
  H     -150.468     171.269      43.573
  H     -153.345     172.710      45.809
  H     -152.492     171.922      44.468
  H     -152.409     173.694      44.657
  H     -146.145     176.868      51.415
  H     -147.240     176.215      50.220
  H     -146.383     177.703      49.898

 3  4  5  6  7  8  9  10  11  12  13  23  27  28  29  30  32 0
 6-311+G(2d,p)
 ****
 34  35 0
 6-311+G(2d,p)
 ****
 1  2  14  15  16  17  18  19  20  21  22  24  25  26 0
 3-21G
 ****
 31  33  36  37  38  39  40  41  42  43  44  45  46 0
 3-21G
 ****


