%nproc=1
%NoSave
%Mem=1900MB
#P OB98/GEN NMR

erre ene a

0 1
  C     -117.547     -29.403     -81.166
  O     -116.159     -29.466     -80.913
  H     -117.760     -28.500     -81.739
  H     -118.095     -29.357     -80.221
  H     -117.874     -30.274     -81.743
  P     -115.585     -30.826     -80.287
  C     -115.416     -32.315     -82.412
  O     -114.726     -31.535     -81.446
  C     -114.546     -33.497     -82.842
  O     -115.287     -34.286     -83.818
  C     -113.218     -33.092     -83.494
  O     -112.217     -34.041     -83.111
  C     -113.504     -33.243     -84.977
  O     -112.341     -33.435     -85.772
  C     -114.437     -34.459     -84.969
  N     -115.226     -34.569     -86.195
  C     -114.595     -35.098     -87.316
  O     -113.453     -35.554     -87.329
  N     -115.339     -35.088     -88.471
  C     -116.601     -34.597     -88.611
  O     -117.206     -34.602     -89.677
  C     -117.211     -34.045     -87.394
  C     -116.506     -34.054     -86.260
  O     -116.889     -31.748     -80.176
  O     -114.871     -30.684     -78.985
  H     -117.324     -31.620     -79.312
  H     -112.635     -33.757     -86.647
  H     -114.894     -35.467     -89.292
  H     -118.209     -33.635     -87.471
  H     -116.918     -33.634     -85.348
  H     -113.862     -35.378     -84.817
  H     -114.025     -32.353     -85.349
  H     -112.885     -32.081     -83.242
  H     -114.376     -34.143     -81.973
  H     -115.634     -31.698     -83.289
  H     -116.358     -32.670     -81.984
  P     -111.359     -33.717     -81.794
  C     -112.817     -34.929     -79.984
  O     -111.645     -34.930     -80.783
  O     -112.182     -32.489     -81.183
  O     -109.925     -33.436     -82.085
  H     -113.143     -32.566     -81.328
  H     -112.836     -35.811     -79.378
  H     -113.680     -34.912     -80.617
  H     -112.819     -34.064     -79.355

 6  7  8  9  10  11  12  13  14  15  16  27  31  32  33  34  35 0
 6-311+G(2d,p)
 ****
 36  37 0
 6-311+G(2d,p)
 ****
 1  2  3  4  5  17  18  19  20  21  22  23  24  25 0
 3-21G
 ****
 26  28  29  30  38  39  40  41  42  43  44  45 0
 3-21G
 ****


