%nproc=1
%NoSave
%Mem=1900MB
#P OB98/GEN NMR

erre ene a

0 1
  C      572.126    -350.957    -898.940
  O      570.837    -350.717    -898.400
  H      572.596    -351.793    -898.430
  H      572.026    -351.200    -900.000
  H      572.742    -350.061    -898.840
  P      570.753    -350.380    -896.840
  C      570.573    -347.820    -897.210
  O      571.325    -348.890    -896.650
  C      570.628    -346.602    -896.280
  O      570.177    -347.008    -894.960
  C      572.031    -345.978    -896.130
  O      571.993    -344.602    -896.510
  C      572.316    -346.050    -894.630
  O      572.962    -344.882    -894.130
  C      570.937    -346.245    -894.010
  N      570.595    -345.678    -888.960
  C      570.096    -344.941    -889.980
  N      570.129    -345.202    -891.300
  C      570.741    -346.389    -891.540
  C      571.278    -347.252    -890.600
  C      571.191    -346.853    -889.260
  N      571.745    -347.585    -888.220
  N      571.816    -348.368    -891.220
  C      571.654    -348.141    -892.500
  N      571.027    -346.946    -892.750
  O      571.897    -351.306    -896.200
  O      569.426    -350.626    -896.210
  H      572.360    -344.132    -894.300
  H      571.547    -351.777    -895.420
  H      569.610    -344.004    -889.700
  H      572.016    -348.779    -893.310
  H      570.416    -345.293    -893.850
  H      572.969    -346.915    -894.440
  H      572.793    -346.511    -896.710
  H      569.924    -345.854    -896.650
  H      569.525    -348.125    -897.320
  H      571.747    -347.162    -887.300
  H      572.286    -348.396    -888.440
  H      570.973    -347.576    -898.190
  P      572.753    -344.219    -897.890
  C      570.785    -342.912    -899.000
  O      571.617    -344.066    -899.030
  O      573.488    -345.575    -898.290
  O      573.707    -343.083    -897.750
  H      574.273    -345.390    -898.830
  H      570.088    -342.953    -899.811
  H      571.389    -342.034    -899.093
  H      570.252    -342.881    -898.073

 6  7  8  9  10  11  12  13  14  15  25  28  32  33  34  35 0
 6-311+G(2d,p)
 ****
 36  39  40 0
 6-311+G(2d,p)
 ****
 1  2  3  4  5  16  17  18  19  20  21  22  23  24 0
 3-21G
 ****
 26  27  29  30  31  37  38  41  42  43  44  45  46  47  48 0
 3-21G
 ****


