%nproc=1
%NoSave
%Mem=1900MB
#P OB98/GEN NMR

erre ene a

0 1
  C     -210.675    -208.316    -128.062
  O     -210.275    -207.010    -128.413
  H     -209.865    -209.008    -128.317
  H     -211.565    -208.597    -128.627
  H     -210.878    -208.396    -126.992
  P     -211.125    -205.769    -127.861
  C     -213.105    -206.496    -129.352
  O     -212.674    -206.136    -128.046
  C     -214.577    -206.910    -129.349
  O     -214.739    -208.075    -128.497
  C     -215.475    -205.803    -128.770
  O     -216.793    -205.847    -129.300
  C     -215.520    -206.158    -127.289
  O     -216.662    -205.615    -126.621
  C     -215.502    -207.688    -127.344
  N     -216.151    -208.775    -122.396
  C     -216.901    -207.958    -123.224
  N     -217.972    -207.349    -122.648
  N     -216.620    -207.733    -124.479
  C     -215.485    -208.350    -124.896
  C     -214.645    -209.165    -124.178
  C     -214.987    -209.434    -122.795
  O     -214.345    -210.131    -122.020
  N     -213.594    -209.595    -124.941
  C     -213.784    -209.040    -126.118
  N     -214.937    -208.289    -126.153
  O     -210.902    -204.636    -128.972
  O     -210.743    -205.278    -126.491
  H     -216.649    -204.650    -126.766
  H     -211.070    -203.753    -128.593
  H     -216.431    -208.938    -121.451
  H     -213.135    -209.154    -126.981
  H     -216.522    -208.077    -127.461
  H     -214.636    -205.734    -126.806
  H     -218.106    -207.341    -121.650
  H     -215.064    -204.810    -128.919
  H     -218.336    -206.520    -123.129
  H     -214.885    -207.210    -130.358
  H     -212.465    -207.327    -129.679
  H     -212.935    -205.671    -130.047
  P     -217.314    -204.603    -130.167
  C     -219.283    -203.990    -128.495
  O     -218.140    -203.604    -129.234
  O     -218.426    -205.241    -131.121
  O     -216.243    -203.907    -130.941
  H     -218.152    -205.181    -132.057
  H     -219.657    -203.148    -127.951
  H     -219.019    -204.768    -127.810
  H     -220.038    -204.345    -129.165

 6  7  8  9  10  11  12  13  14  15  26  29  33  34 0
 6-311+G(2d,p)
 ****
 36  38  39  40  41 0
 6-311+G(2d,p)
 ****
 1  2  3  4  5  16  17  18  19  20  21  22  23  24  25 0
 3-21G
 ****
 27  28  30  31  32  35  37  42  43  44  45  46  47 0
 3-21G
 ****
 48  49 0
 3-21G
 ****


