%nproc=1
%NoSave
%Mem=1900MB
#P OB98/GEN NMR

erre ene a

0 1
  C     -653.069     -10.332    -243.089
  O     -653.903      -9.910    -244.149
  H     -653.541     -11.186    -242.598
  H     -652.945      -9.531    -242.356
  H     -652.092     -10.644    -243.467
  P     -653.435      -8.657    -245.037
  C     -655.855      -8.506    -245.952
  O     -654.791      -7.834    -245.299
  C     -657.178      -8.207    -245.255
  O     -657.293      -8.931    -244.014
  C     -657.380      -6.744    -244.868
  O     -657.663      -5.894    -245.968
  C     -658.564      -6.886    -243.925
  O     -659.766      -7.101    -244.687
  C     -658.165      -8.155    -243.136
  N     -657.482      -7.848    -241.882
  C     -658.265      -7.297    -240.861
  O     -659.467      -7.091    -241.034
  N     -657.666      -6.972    -239.662
  C     -656.392      -7.146    -239.520
  N     -655.850      -6.795    -238.318
  C     -655.520      -7.700    -240.573
  C     -656.125      -8.023    -241.712
  O     -652.635      -8.981    -246.259
  O     -652.668      -7.700    -244.008
  H     -660.510      -6.856    -244.111
  H     -652.347      -6.910    -244.512
  H     -654.456      -7.801    -240.406
  H     -655.550      -8.434    -242.541
  H     -659.042      -8.777    -242.924
  H     -658.724      -6.008    -243.303
  H     -656.522      -6.368    -244.295
  H     -657.984      -8.564    -245.911
  H     -656.466      -6.419    -237.612
  H     -655.638      -9.579    -245.938
  H     -654.852      -6.824    -238.140
  H     -655.927      -8.176    -246.990
  P     -656.488      -4.898    -246.434
  C     -658.321      -3.448    -247.607
  O     -657.190      -3.491    -246.748
  O     -656.087      -5.469    -247.871
  O     -655.323      -4.806    -245.498
  H     -655.289      -6.028    -247.808
  H     -658.657      -2.437    -247.704
  H     -659.106      -4.047    -247.194
  H     -658.052      -3.828    -248.570

 6  7  8  9  10  11  12  13  14  15  16  26  30  31  32  33  35 0
 6-311+G(2d,p)
 ****
 37  38 0
 6-311+G(2d,p)
 ****
 1  2  3  4  5  17  18  19  20  21  22  23  24  25 0
 3-21G
 ****
 27  28  29  34  36  39  40  41  42  43  44  45  46 0
 3-21G
 ****


