%nproc=1
%NoSave
%Mem=1900MB
#P OB98/GEN NMR

erre ene a

0 1
  C     -523.228      42.032     268.296
  O     -522.139      41.148     268.587
  P     -522.120      40.493     270.049
  C     -519.643      41.178     270.460
  O     -520.599      40.123     270.410
  C     -518.229      40.606     270.337
  O     -517.996      40.022     269.036
  C     -517.138      41.657     270.509
  O     -516.989      42.022     271.873
  C     -515.940      40.926     269.908
  O     -515.393      39.991     270.863
  C     -516.581      40.157     268.739
  N     -513.199      42.253     265.532
  C     -513.048      41.671     266.742
  N     -514.005      41.134     267.536
  C     -515.215      41.241     266.959
  C     -515.518      41.799     265.732
  C     -514.435      42.331     265.001
  N     -514.584      42.934     263.771
  N     -516.866      41.717     265.473
  C     -517.379      41.139     266.543
  N     -516.415      40.820     267.462
  O     -522.814      39.067     269.828
  O     -522.833      41.307     271.084
  H     -514.947      39.283     270.354
  H     -523.700      39.069     270.230
  H     -512.035      41.634     267.127
  H     -518.432      40.934     266.695
  H     -516.171      39.150     268.638
  H     -515.131      41.604     269.613
  H     -517.366      42.548     269.911
  H     -518.110      39.822     271.098
  H     -519.738      41.734     271.395
  H     -513.771      43.361     263.348
  H     -515.518      43.080     263.403
  H     -519.852      41.879     269.643
  P     -517.174      43.567     272.260
  C     -515.151      43.493     273.841
  O     -516.551      43.668     273.738
  O     -518.745      43.648     272.531
  O     -516.635      44.538     271.255
  H     -519.058      42.899     273.078
  H     -514.858      43.618     274.883
  H     -514.631      44.239     273.234
  H     -514.873      42.486     273.509
  H     -523.130      42.402     267.297
  H     -523.215      42.852     268.983
  H     -524.153      41.502     268.391

 3  4  5  6  7  8  9  10  11  12  22  25  29  30  31  32 0
 6-311+G(2d,p)
 ****
 33  36  37 0
 6-311+G(2d,p)
 ****
 1  2  13  14  15  16  17  18  19  20  21  23  24  26 0
 3-21G
 ****
 27  28  34  35  38  39  40  41  42  43  44  45  46  47  48 0
 3-21G
 ****


