%nproc=1
%NoSave
%Mem=1900MB
#P OB98/GEN NMR

erre ene a

0 1
  C     -117.720    -106.368     -36.901
  O     -117.279    -105.985     -38.191
  H     -118.721    -105.960     -36.739
  H     -117.048    -105.967     -36.139
  H     -117.765    -107.458     -36.827
  P     -115.828    -106.510     -38.634
  C     -115.001    -108.845     -39.389
  O     -115.977    -108.106     -38.663
  C     -114.829    -110.238     -38.786
  O     -114.215    -110.155     -37.487
  C     -116.133    -110.999     -38.580
  O     -116.567    -111.595     -39.793
  C     -115.694    -112.043     -37.564
  O     -115.002    -113.114     -38.236
  C     -114.709    -111.258     -36.679
  N     -115.089    -111.859     -31.595
  C     -114.589    -112.662     -32.560
  N     -114.560    -112.456     -33.893
  C     -115.123    -111.278     -34.206
  C     -115.674    -110.351     -33.330
  C     -115.636    -110.676     -31.964
  N     -116.137    -109.847     -30.983
  N     -116.159    -109.257     -34.015
  C     -115.857    -109.494     -35.277
  N     -115.263    -110.720     -35.447
  O     -114.678    -105.965     -37.858
  O     -115.834    -106.138     -40.193
  H     -114.632    -113.700     -37.549
  H     -116.712    -106.297     -40.579
  H     -114.151    -113.593     -32.213
  H     -116.032    -108.806     -36.096
  H     -113.845    -111.866     -36.393
  H     -116.540    -112.491     -37.038
  H     -116.902    -110.362     -38.130
  H     -114.144    -110.801     -39.434
  H     -114.043    -108.317     -39.385
  H     -116.225    -110.229     -30.052
  H     -116.653    -109.028     -31.268
  H     -115.350    -108.922     -40.424
  P     -118.062    -112.158     -39.935
  C     -120.419    -111.130     -39.910
  O     -119.047    -110.939     -39.583
  O     -118.338    -113.414     -39.182
  O     -118.272    -112.351     -41.507
  H     -118.791    -113.157     -41.686
  H     -120.976    -110.260     -39.633
  H     -120.797    -111.979     -39.380
  H     -120.515    -111.295     -40.963

 6  7  8  9  10  11  12  13  14  15  25  28  32  33  34  35 0
 6-311+G(2d,p)
 ****
 36  39  40 0
 6-311+G(2d,p)
 ****
 1  2  3  4  5  16  17  18  19  20  21  22  23  24 0
 3-21G
 ****
 26  27  29  30  31  37  38  41  42  43  44  45  46  47 0
 3-21G
 ****
 48 0
 3-21G
 ****


