%nproc=1
%NoSave
%Mem=1900MB
#P OB98/GEN NMR

erre ene a

0 1
  C     -175.022      50.615     257.327
  O     -174.409      49.395     256.949
  H     -176.080      50.577     257.054
  H     -174.562      51.461     256.807
  H     -174.941      50.759     258.408
  P     -172.819      49.266     257.102
  C     -172.605      48.762     254.573
  O     -172.219      49.602     255.657
  C     -171.764      49.078     253.340
  O     -172.162      50.343     252.775
  C     -170.278      49.209     253.644
  O     -169.687      47.938     253.832
  C     -169.804      49.978     252.427
  O     -169.630      49.112     251.298
  C     -170.983      50.954     252.200
  N     -170.743      52.272     252.775
  C     -169.899      53.116     252.045
  O     -169.410      52.740     250.981
  N     -169.615      54.359     252.555
  C     -170.139      54.734     253.679
  N     -169.818      55.977     254.130
  C     -171.044      53.880     254.474
  C     -171.295      52.675     253.969
  O     -172.301      47.997     257.706
  O     -172.420      50.552     257.970
  H     -170.442      48.569     251.252
  H     -172.451      50.345     258.922
  H     -171.462      54.237     255.404
  H     -171.953      51.985     254.490
  H     -171.179      51.076     251.128
  H     -168.853      50.475     252.614
  H     -170.128      49.841     254.526
  H     -171.946      48.300     252.589
  H     -169.184      56.525     253.557
  H     -173.662      48.960     254.371
  H     -170.232      56.406     254.944
  H     -172.495      47.706     254.845
  P     -168.715      47.666     255.078
  C     -167.638      45.488     254.210
  O     -167.453      46.878     254.469
  O     -169.359      47.029     256.264
  O     -168.110      49.119     255.389
  H     -168.778      49.700     255.829
  H     -166.735      45.077     253.810
  H     -168.432      45.359     253.505
  H     -167.886      44.985     255.121

 6  7  8  9  10  11  12  13  14  15  16  26  30  31  32  33  35 0
 6-311+G(2d,p)
 ****
 37  38 0
 6-311+G(2d,p)
 ****
 1  2  3  4  5  17  18  19  20  21  22  23  24  25 0
 3-21G
 ****
 27  28  29  34  36  39  40  41  42  43  44  45  46 0
 3-21G
 ****


