%nproc=1
%NoSave
%Mem=1900MB
#P OB98/GEN NMR

erre ene a

0 1
  C      332.778     232.045     -20.095
  O      333.803     233.017     -20.127
  H      332.197     232.116     -21.021
  H      332.110     232.240     -19.253
  H      333.192     231.036     -20.017
  P      334.970     232.951     -19.036
  C      333.563     234.017     -17.147
  O      334.237     232.854     -17.606
  C      333.140     233.842     -15.688
  O      332.074     232.843     -15.639
  C      334.284     233.351     -14.776
  O      334.111     233.925     -13.476
  C      334.012     231.856     -14.723
  O      334.632     231.245     -13.616
  C      332.484     231.839     -14.689
  N      331.955     230.520     -15.003
  C      331.182     229.900     -14.027
  O      330.936     230.402     -12.932
  N      330.746     228.636     -14.320
  C      331.097     227.904     -15.419
  O      330.739     226.743     -15.589
  C      331.963     228.591     -16.395
  C      332.338     229.845     -16.146
  O      336.015     234.019     -19.125
  O      335.586     231.482     -19.195
  H      334.320     230.326     -13.526
  H      336.488     231.449     -18.824
  H      330.171     228.175     -13.622
  H      332.267     228.033     -17.270
  H      332.990     230.374     -16.833
  H      332.110     232.151     -13.697
  H      334.386     231.368     -15.626
  H      335.276     233.588     -15.161
  H      332.722     234.782     -15.318
  H      332.678     234.169     -17.775
  H      334.226     234.888     -17.249
  P      334.922     235.240     -13.015
  C      336.402     234.139     -11.226
  O      336.381     234.836     -12.462
  O      334.151     236.136     -12.102
  O      335.242     235.999     -14.385
  H      335.043     236.951     -14.280
  H      337.414     233.923     -10.956
  H      335.855     233.224     -11.323
  H      335.952     234.745     -10.467

 6  7  8  9  10  11  12  13  14  15  16  26  31  32  33  34  35 0
 6-311+G(2d,p)
 ****
 36  37 0
 6-311+G(2d,p)
 ****
 1  2  3  4  5  17  18  19  20  21  22  23  24  25 0
 3-21G
 ****
 27  28  29  30  38  39  40  41  42  43  44  45 0
 3-21G
 ****


