%nproc=1
%NoSave
%Mem=1900MB
#P OB98/GEN NMR

erre ene a

0 1
  C     -263.998    -172.557     175.591
  O     -265.289    -172.856     175.089
  P     -266.545    -172.594     176.044
  C     -267.622    -174.533     174.671
  O     -267.811    -173.313     175.373
  C     -268.914    -174.917     173.943
  O     -269.947    -175.251     174.898
  C     -269.500    -173.802     173.089
  O     -268.805    -173.678     171.854
  C     -270.942    -174.245     172.941
  O     -271.079    -175.202     171.875
  C     -271.216    -174.906     174.311
  N     -272.011    -174.060     175.190
  C     -273.372    -173.997     174.906
  O     -273.889    -174.596     173.957
  N     -274.120    -173.191     175.726
  C     -273.643    -172.416     176.746
  O     -274.357    -171.667     177.409
  C     -272.189    -172.501     176.982
  C     -271.452    -173.295     176.199
  O     -266.852    -171.033     175.860
  O     -266.320    -172.951     177.479
  H     -270.650    -174.814     171.091
  H     -267.156    -170.651     176.705
  H     -275.112    -173.152     175.551
  H     -271.772    -171.890     177.776
  H     -270.380    -173.362     176.348
  H     -271.752    -175.856     174.171
  H     -271.606    -173.409     172.704
  H     -269.464    -172.850     173.645
  H     -268.715    -175.808     173.330
  H     -267.344    -175.322     175.375
  H     -266.803    -174.408     173.953
  P     -267.840    -172.410     171.678
  C     -268.834    -171.950     169.301
  O     -267.691    -172.214     170.096
  O     -266.440    -173.029     172.161
  O     -268.291    -171.219     172.461
  H     -266.370    -173.974     171.938
  H     -269.564    -171.330     169.837
  H     -269.296    -172.898     169.024
  H     -268.519    -171.427     168.397
  H     -263.264    -172.782     174.845
  H     -263.810    -173.145     176.465
  H     -263.945    -171.518     175.842

 3  4  5  6  7  8  9  10  11  12  13  23  28  29  30  31  32 0
 6-311+G(2d,p)
 ****
 33  34 0
 6-311+G(2d,p)
 ****
 1  2  14  15  16  17  18  19  20  21  22  24  25  26 0
 3-21G
 ****
 27  35  36  37  38  39  40  41  42  43  44  45 0
 3-21G
 ****


