%nproc=1
%NoSave
%Mem=1900MB
#P OB98/GEN NMR

erre ene a

0 1
  C      158.216    -205.775     285.360
  O      158.132    -205.966     286.761
  P      156.724    -206.262     287.474
  C      157.035    -204.173     288.964
  O      156.220    -204.836     288.006
  C      156.362    -202.880     289.410
  O      156.410    -201.915     288.343
  C      154.888    -203.025     289.771
  O      154.730    -203.625     291.048
  C      154.420    -201.579     289.664
  O      154.783    -200.846     290.845
  C      155.242    -201.069     288.460
  N      154.475    -201.054     287.219
  C      153.997    -199.810     286.797
  O      154.228    -198.789     287.443
  N      153.291    -199.740     285.620
  C      153.062    -200.820     284.938
  N      152.418    -200.680     283.747
  C      153.497    -202.158     285.376
  C      154.195    -202.199     286.508
  O      156.758    -207.336     288.508
  O      155.718    -206.556     286.269
  H      154.510    -201.391     291.609
  H      155.693    -207.507     285.999
  H      153.271    -203.030     284.779
  H      154.571    -203.141     286.888
  H      155.614    -200.058     288.658
  H      153.338    -201.480     289.527
  H      154.370    -203.636     289.023
  H      156.924    -202.475     290.264
  H      152.293    -199.734     283.405
  H      157.998    -203.938     288.500
  H      152.456    -201.403     283.040
  H      157.208    -204.842     289.815
  P      153.248    -204.036     291.497
  C      153.330    -202.177     293.305
  O      152.628    -202.736     292.209
  O      153.499    -205.066     292.695
  O      152.415    -204.626     290.408
  H      153.384    -205.983     292.383
  H      152.917    -201.189     293.513
  H      154.394    -202.072     293.072
  H      153.201    -202.806     294.189
  H      159.234    -205.592     285.085
  H      157.614    -204.937     285.078
  H      157.864    -206.652     284.859

 3  4  5  6  7  8  9  10  11  12  13  23  27  28  29  30  32 0
 6-311+G(2d,p)
 ****
 34  35 0
 6-311+G(2d,p)
 ****
 1  2  14  15  16  17  18  19  20  21  22  24  25  26 0
 3-21G
 ****
 31  33  36  37  38  39  40  41  42  43  44  45  46 0
 3-21G
 ****


