%nproc=1
%NoSave
%Mem=1900MB
#P OB98/GEN NMR

erre ene a

0 1
  C       31.443     -50.166     119.312
  O       30.874     -49.601     118.145
  P       31.785     -48.647     117.234
  C       30.748     -46.495     118.327
  O       31.028     -47.235     117.154
  C       29.752     -45.372     118.023
  O       29.417     -44.691     119.263
  C       30.269     -44.312     117.042
  O       29.152     -43.881     116.256
  C       30.734     -43.199     117.965
  O       30.796     -41.939     117.315
  C       29.679     -43.287     119.072
  N       30.102     -42.669     120.329
  C       30.356     -41.301     120.327
  O       30.268     -40.589     119.329
  N       30.753     -40.770     121.527
  C       30.979     -41.462     122.680
  O       31.351     -40.936     123.721
  C       30.740     -42.911     122.608
  C       30.310     -43.435     121.460
  O       31.561     -49.292     115.789
  O       33.206     -48.571     117.677
  H       30.659     -49.632     115.660
  H       31.324     -41.338     117.871
  H       30.907     -39.772     121.558
  H       30.923     -43.498     123.500
  H       30.129     -44.500     121.383
  H       28.742     -42.829     118.734
  H       31.734     -43.436     118.344
  H       31.058     -44.695     116.389
  H       28.828     -45.827     117.643
  H       31.673     -46.056     118.709
  H       30.354     -47.170     119.094
  P       29.378     -43.647     114.680
  C       30.111     -41.163     115.050
  O       29.252     -42.076     114.406
  O       27.992     -44.221     114.107
  O       30.571     -44.338     114.106
  H       27.217     -43.875     114.578
  H       30.101     -40.219     114.498
  H       31.138     -41.535     115.084
  H       29.754     -40.978     116.067
  H       30.714     -50.773     119.807
  H       31.760     -49.383     119.969
  H       32.285     -50.769     119.042

 3  4  5  6  7  8  9  10  11  12  13  24  28  29  30  31  32 0
 6-311+G(2d,p)
 ****
 33  34 0
 6-311+G(2d,p)
 ****
 1  2  14  15  16  17  18  19  20  21  22  23  25  26  27 0
 3-21G
 ****
 35  36  37  38  39  40  41  42  43  44  45 0
 3-21G
 ****


