%nproc=1
%NoSave
%Mem=1900MB
#P OB98/GEN NMR

erre ene a

0 1
  C      243.756      58.386     -99.454
  O      244.475      57.468    -100.252
  H      244.449      59.139     -99.067
  H      243.298      57.866     -98.606
  H      242.980      58.892    -100.038
  P      243.664      56.421    -101.157
  C      244.082      54.616     -99.361
  O      243.117      55.283    -100.163
  C      244.021      53.101     -99.585
  O      242.628      52.669     -99.459
  C      244.515      52.652    -100.980
  O      245.102      51.352    -100.825
  C      243.203      52.571    -101.741
  O      243.343      51.877    -102.952
  C      242.312      51.942    -100.665
  N      240.887      52.014    -100.975
  C      240.268      50.847    -101.420
  O      240.846      49.770    -101.547
  N      238.940      50.963    -101.736
  C      238.187      52.100    -101.654
  O      236.992      52.140    -101.928
  C      238.903      53.308    -101.203
  C      240.200      53.212    -100.889
  O      244.381      55.916    -102.365
  O      242.329      57.220    -101.552
  H      242.431      57.602    -102.444
  H      243.719      50.986    -102.795
  H      238.474      50.128    -102.060
  H      238.344      54.232    -101.148
  H      240.763      54.079    -100.553
  H      242.590      50.896    -100.493
  H      242.851      53.578    -101.994
  H      245.248      53.339    -101.413
  H      244.581      52.601     -98.784
  H      243.869      54.845     -98.309
  H      245.082      54.991     -99.611
  P      246.676      51.069    -100.991
  C      246.176      49.801    -103.180
  O      246.998      50.759    -102.535
  O      247.199      50.024    -100.059
  O      247.396      52.477    -100.722
  H      248.245      52.321    -100.263
  H      246.491      49.687    -104.196
  H      245.158      50.131    -103.157
  H      246.258      48.862    -102.673

 6  7  8  9  10  11  12  13  14  15  16  27  31  32  33  34  35 0
 6-311+G(2d,p)
 ****
 36  37 0
 6-311+G(2d,p)
 ****
 1  2  3  4  5  17  18  19  20  21  22  23  24  25 0
 3-21G
 ****
 26  28  29  30  38  39  40  41  42  43  44  45 0
 3-21G
 ****


