%nproc=1
%NoSave
%Mem=1900MB
#P OB98/GEN NMR

erre ene a

0 1
  C     -130.915      -5.506      41.919
  O     -130.391      -5.867      43.202
  P     -131.377      -5.797      44.466
  C     -132.614      -3.902      45.752
  O     -131.554      -4.255      44.877
  C     -132.317      -2.560      46.436
  O     -131.281      -2.694      47.438
  C     -131.834      -1.479      45.474
  O     -132.919      -0.836      44.819
  C     -131.169      -0.510      46.441
  O     -132.167       0.311      47.079
  C     -130.518      -1.459      47.461
  N     -125.731      -0.162      48.481
  C     -126.919       0.340      48.984
  N     -126.812       1.327      49.906
  N     -128.101      -0.087      48.623
  C     -128.052      -1.087      47.710
  C     -126.942      -1.667      47.133
  C     -125.640      -1.175      47.534
  O     -124.554      -1.569      47.110
  N     -127.296      -2.651      46.246
  C     -128.614      -2.682      46.295
  N     -129.123      -1.740      47.158
  O     -130.473      -6.377      45.656
  O     -132.641      -6.575      44.300
  H     -131.689       1.036      47.525
  H     -131.039      -6.786      46.336
  H     -124.850       0.209      48.790
  H     -129.240      -3.364      45.732
  H     -130.553      -1.063      48.483
  H     -130.475       0.172      45.935
  H     -125.935       1.670      50.265
  H     -131.093      -1.880      44.766
  H     -127.672       1.683      50.310
  H     -133.236      -2.218      46.931
  H     -132.759      -4.678      46.509
  H     -133.547      -3.862      45.183
  P     -133.271      -1.311      43.326
  C     -132.033      -1.211      41.043
  O     -132.052      -0.828      42.409
  O     -134.476      -0.332      42.919
  O     -133.663      -2.747      43.200
  H     -135.083      -0.788      42.305
  H     -131.229      -0.669      40.539
  H     -132.982      -0.972      40.557
  H     -131.834      -2.287      40.960
  H     -130.147      -5.601      41.180
  H     -131.260      -4.493      41.947
  H     -131.730      -6.154      41.672

 3  4  5  6  7  8  9  10  11  12  23  26  30  31 0
 6-311+G(2d,p)
 ****
 33  35  36  37  38 0
 6-311+G(2d,p)
 ****
 1  2  13  14  15  16  17  18  19  20  21  22  24  25 0
 3-21G
 ****
 27  28  29  32  34  39  40  41  42  43  44  45  46  47  48  49 0
 3-21G
 ****


