%nproc=1
%NoSave
%Mem=1900MB
#P OB98/GEN NMR

erre ene a

0 1
  C     -894.570     985.466     -58.016
  O     -895.530     985.562     -59.068
  P     -895.790     986.957     -59.819
  C     -897.620     987.910     -58.284
  O     -896.250     987.969     -58.658
  C     -898.160     989.323     -58.046
  O     -897.350     989.965     -57.039
  C     -898.110     990.259     -59.252
  O     -899.220     990.131     -60.144
  C     -898.180     991.614     -58.563
  O     -899.540     991.897     -58.177
  C     -897.310     991.388     -57.322
  N     -893.850     994.979     -56.179
  C     -895.140     994.813     -55.809
  N     -896.010     993.838     -56.175
  C     -895.400     992.949     -56.971
  C     -894.100     992.974     -57.429
  C     -893.300     994.044     -56.994
  N     -891.970     994.193     -57.359
  N     -893.840     991.887     -58.255
  C     -894.970     991.217     -58.272
  N     -895.940     991.809     -57.505
  O     -896.710     986.858     -60.996
  O     -894.330     987.479     -60.198
  H     -899.870     991.115     -57.699
  H     -894.400     988.183     -60.896
  H     -895.530     995.573     -55.135
  H     -895.140     990.301     -58.826
  H     -897.710     991.900     -56.435
  H     -897.850     992.435     -59.201
  H     -897.160     990.173     -59.786
  H     -899.180     989.235     -57.658
  H     -897.690     987.348     -57.343
  H     -891.450     994.929     -56.892
  H     -891.510     993.425     -57.825
  H     -898.200     987.384     -59.037
  P     -898.890     990.064     -61.721
  C     -899.130     992.655     -61.965
  O     -898.320     991.506     -62.105
  O     -900.000     989.560     -62.555
  O     -897.590     989.129     -61.760
  H     -896.790     989.509     -61.366
  H     -898.510     993.542     -62.124
  H     -899.560     992.706     -60.956
  H     -899.930     992.646     -62.712
  H     -894.544     984.462     -57.647
  H     -894.842     986.131     -57.223
  H     -893.604     985.733     -58.390

 3  4  5  6  7  8  9  10  11  12  22  25  29  30  31  32 0
 6-311+G(2d,p)
 ****
 33  36  37 0
 6-311+G(2d,p)
 ****
 1  2  13  14  15  16  17  18  19  20  21  23  24  26 0
 3-21G
 ****
 27  28  34  35  38  39  40  41  42  43  44  45  46  47  48 0
 3-21G
 ****


