%nproc=1
%NoSave
%Mem=1900MB
#P OB98/GEN NMR

erre ene a

0 1
  C     -769.749    -309.999     366.313
  O     -771.097    -310.063     366.739
  H     -769.735    -309.866     365.226
  H     -769.230    -310.931     366.559
  H     -769.242    -309.156     366.783
  P     -771.343    -310.240     368.319
  C     -772.967    -308.227     368.580
  O     -772.792    -309.638     368.622
  C     -774.443    -307.888     368.772
  O     -775.188    -308.210     367.573
  C     -775.122    -308.666     369.890
  O     -774.824    -308.150     371.173
  C     -776.585    -308.517     369.503
  O     -777.126    -307.275     369.961
  C     -776.531    -308.539     367.969
  N     -780.440    -311.267     366.136
  C     -780.346    -309.970     366.530
  N     -779.266    -309.314     366.990
  C     -778.193    -310.124     367.000
  C     -778.131    -311.462     366.642
  C     -779.330    -312.040     366.184
  N     -779.447    -313.362     365.808
  N     -776.859    -311.962     366.837
  C     -776.157    -310.956     367.311
  N     -776.915    -309.826     367.423
  O     -770.347    -309.175     368.967
  O     -771.099    -311.621     368.838
  H     -778.098    -307.404     370.025
  H     -769.533    -309.618     369.272
  H     -781.257    -309.392     366.447
  H     -775.113    -311.005     367.582
  H     -777.195    -307.783     367.520
  H     -777.188    -309.324     369.927
  H     -774.849    -309.730     369.823
  H     -774.529    -306.799     368.944
  H     -772.625    -307.847     367.614
  H     -772.361    -307.778     369.375
  H     -780.341    -313.719     365.561
  H     -778.646    -313.972     365.953
  P     -773.906    -309.043     372.129
  C     -772.871    -307.081     373.517
  O     -773.720    -308.229     373.506
  O     -772.458    -308.992     371.462
  O     -774.391    -310.445     372.321
  H     -772.012    -309.854     371.583
  H     -772.856    -306.658     374.500
  H     -773.242    -306.356     372.823
  H     -771.879    -307.368     373.237

 6  7  8  9  10  11  12  13  14  15  25  28  32  33  34  35 0
 6-311+G(2d,p)
 ****
 36  37  40 0
 6-311+G(2d,p)
 ****
 1  2  3  4  5  16  17  18  19  20  21  22  23  24 0
 3-21G
 ****
 26  27  29  30  31  38  39 41  42  43  44  45  46  47  48 0
 3-21G
 ****


