%nproc=1
%NoSave
%Mem=1900MB
#P OB98/GEN NMR

erre ene a

0 1
  C       41.974     624.552     250.331
  O       40.685     624.035     250.085
  H       42.721     623.809     250.032
  H       42.112     624.769     251.393
  H       42.137     625.463     249.744
  P       39.412     624.871     250.579
  C       39.081     623.481     252.729
  O       39.390     624.762     252.179
  C       39.167     623.504     254.253
  O       38.171     624.440     254.757
  C       38.917     622.135     254.903
  O       39.781     622.001     256.039
  C       37.468     622.241     255.347
  O       37.193     621.344     256.411
  C       37.344     623.732     255.702
  N       35.945     624.163     255.642
  C       35.072     623.594     256.578
  O       35.491     622.778     257.411
  N       33.740     623.907     256.521
  C       33.302     624.664     255.571
  N       31.955     624.914     255.542
  C       34.174     625.273     254.537
  C       35.474     624.980     254.637
  O       38.113     624.544     249.912
  O       39.834     626.395     250.322
  H       37.925     621.386     257.053
  H       39.551     626.670     249.428
  H       33.757     625.899     253.766
  H       36.191     625.369     253.925
  H       37.735     623.926     256.708
  H       36.809     621.995     254.500
  H       39.076     621.297     254.219
  H       40.151     623.899     254.542
  H       31.393     624.448     256.250
  H       39.815     622.762     252.327
  H       31.498     625.443     254.822
  H       38.079     623.173     252.408
  P       40.723     620.710     256.206
  C       38.785     619.223     256.958
  O       39.839     619.387     256.007
  O       41.575     620.714     257.432
  O       41.638     620.738     254.880
  H       42.508     620.334     255.083
  H       38.253     618.319     256.748
  H       38.115     620.055     256.894
  H       39.199     619.173     257.944

 6  7  8  9  10  11  12  13  14  15  16  26  30  31  32  33  35 0
 6-311+G(2d,p)
 ****
 37  38 0
 6-311+G(2d,p)
 ****
 1  2  3  4  5  17  18  19  20  21  22  23  24  25 0
 3-21G
 ****
 27  28  29  34  36  39  40  41  42  43  44  45  46 0
 3-21G
 ****


