%nproc=1
%NoSave
%Mem=1900MB
#P OB98/GEN NMR

erre ene a

0 1
  C      372.211    -331.620      98.570
  O      371.160    -332.338      97.947
  H      372.575    -332.199      99.423
  H      371.858    -330.651      98.938
  H      373.037    -331.469      97.869
  P      370.355    -331.622      96.760
  C      368.646    -329.680      96.662
  O      369.324    -330.628      97.479
  C      367.271    -329.372      97.246
  O      367.392    -328.940      98.614
  C      366.548    -328.251      96.517
  O      366.023    -328.699      95.284
  C      365.520    -327.850      97.557
  O      364.401    -328.745      97.558
  C      366.337    -327.986      98.865
  N      366.881    -326.713      99.325
  C      366.033    -325.935     100.120
  O      364.902    -326.332     100.402
  N      366.482    -324.714     100.555
  C      367.677    -324.316     100.248
  N      368.063    -323.093     100.708
  C      368.605    -325.109      99.422
  C      368.145    -326.282      98.998
  O      369.737    -332.516      95.730
  O      371.432    -330.624      96.123
  H      364.160    -328.866      96.619
  H      371.930    -331.069      95.413
  H      369.594    -324.739      99.194
  H      368.768    -326.934      98.389
  H      365.714    -328.403      99.667
  H      365.139    -326.844      97.381
  H      367.224    -327.404      96.363
  H      366.676    -330.295      97.234
  H      367.386    -322.577     101.263
  H      368.545    -330.127      95.666
  H      368.991    -322.722     100.610
  H      369.232    -328.760      96.571
  P      365.484    -327.653      94.195
  C      363.568    -325.928      94.123
  O      364.180    -326.986      94.857
  O      365.295    -328.199      92.820
  O      366.565    -326.469      94.263
  H      367.413    -326.731      93.829
  H      362.716    -325.567      94.661
  H      363.258    -326.291      93.165
  H      364.271    -325.132      93.992

 6  7  8  9  10  11  12  13  14  15  16  26  30  31  32  33  35 0
 6-311+G(2d,p)
 ****
 37  38 0
 6-311+G(2d,p)
 ****
 1  2  3  4  5  17  18  19  20  21  22  23  24  25 0
 3-21G
 ****
 27  28  29  34  36  39  40  41  42  43  44  45  46 0
 3-21G
 ****


