%nproc=1
%NoSave
%Mem=1900MB
#P OB98/GEN NMR

erre ene a

0 1
  C       91.499    -373.469     360.850
  O       92.419    -374.083     359.963
  P       92.486    -375.686     359.868
  C       92.537    -375.608     357.294
  O       93.193    -376.064     358.481
  C       93.395    -375.899     356.065
  O       94.431    -374.893     355.923
  C       94.128    -377.234     356.111
  O       93.238    -378.306     355.842
  C       95.210    -377.017     355.075
  O       94.695    -377.241     353.745
  C       95.550    -375.519     355.268
  N      100.011    -373.050     355.439
  C       99.093    -373.177     354.454
  N       97.945    -373.894     354.477
  C       97.803    -374.519     355.649
  C       98.666    -374.506     356.730
  C       99.826    -373.713     356.587
  N      100.739    -373.513     357.620
  N       98.197    -375.321     357.747
  C       97.058    -375.814     357.281
  N       96.746    -375.314     356.046
  O       91.196    -376.392     360.140
  O       93.601    -376.076     360.955
  H       94.436    -378.186     353.684
  H       93.194    -376.651     361.635
  H       99.303    -372.631     353.523
  H       96.428    -376.513     357.806
  H       95.681    -375.006     354.312
  H       96.067    -377.688     355.203
  H       94.597    -377.368     357.100
  H       92.745    -375.838     355.175
  H       92.350    -374.535     357.385
  H      101.430    -372.803     357.462
  H      100.456    -373.747     358.576
  H       91.561    -376.109     357.212
  P       93.822    -379.776     355.601
  C       91.634    -380.805     356.484
  O       92.557    -380.748     355.398
  O       94.831    -380.248     356.589
  O       94.446    -379.709     354.123
  H       95.211    -380.301     354.067
  H       92.048    -381.454     357.269
  H       90.692    -381.242     356.114
  H       91.434    -379.819     356.889
  H       91.593    -372.405     360.781
  H       91.707    -373.781     361.852
  H       90.503    -373.757     360.586

 3  4  5  6  7  8  9  10  11  12  22  25  29  30  31  32 0
 6-311+G(2d,p)
 ****
 33  36  37 0
 6-311+G(2d,p)
 ****
 1  2  13  14  15  16  17  18  19  20  21  23  24  26 0
 3-21G
 ****
 27  28  34  35  38  39  40  41  42  43  44  45  46  47  48 0
 3-21G
 ****


