%nproc=1
%NoSave
%Mem=1900MB
#P OB98/GEN NMR

erre ene a

0 1
  C      -73.460    -151.252     -11.903
  O      -74.574    -150.394     -11.740
  P      -74.446    -149.072     -10.846
  C      -74.935    -150.383      -8.652
  O      -74.055    -149.544      -9.365
  C      -75.127    -149.889      -7.211
  O      -73.848    -149.989      -6.535
  C      -75.553    -148.432      -7.084
  O      -76.089    -148.227      -5.774
  C      -74.230    -147.708      -7.210
  O      -74.284    -146.385      -6.682
  C      -73.252    -148.671      -6.489
  N      -71.928    -148.683      -7.138
  C      -70.822    -148.452      -6.323
  O      -70.908    -148.321      -5.105
  N      -69.627    -148.294      -6.969
  C      -69.454    -148.299      -8.322
  O      -68.459    -147.855      -8.885
  C      -70.600    -148.780      -9.107
  C      -71.776    -148.925      -8.494
  O      -75.966    -148.590     -10.704
  O      -73.577    -148.007     -11.422
  H      -74.460    -146.472      -5.716
  H      -76.165    -147.906     -11.369
  H      -68.854    -147.985      -6.391
  H      -70.461    -148.941     -10.169
  H      -72.656    -149.229      -9.056
  H      -73.109    -148.386      -5.439
  H      -73.964    -147.630      -8.271
  H      -76.271    -148.105      -7.843
  H      -75.835    -150.547      -6.693
  H      -74.547    -151.406      -8.661
  H      -75.913    -150.419      -9.149
  P      -77.583    -147.650      -5.657
  C      -76.870    -145.423      -4.592
  O      -77.456    -146.053      -5.714
  O      -78.404    -148.191      -4.533
  O      -78.219    -148.008      -7.085
  H      -79.192    -147.977      -7.028
  H      -76.376    -144.505      -4.919
  H      -76.131    -146.071      -4.111
  H      -77.653    -145.169      -3.872
  H      -73.733    -152.076     -12.528
  H      -73.148    -151.617     -10.947
  H      -72.657    -150.711     -12.357

 3  4  5  6  7  8  9  10  11  12  13  23  28  29  30  31  32 0
 6-311+G(2d,p)
 ****
 33  34 0
 6-311+G(2d,p)
 ****
 1  2  14  15  16  17  18  19  20  21  22  24  25  26  27 0
 3-21G
 ****
 35  36  37  38  39  40  41  42  43  44  45 0
 3-21G
 ****


