%nproc=1
%NoSave
%Mem=1900MB
#P OB98/GEN NMR

erre ene a

0 1
  C     -310.709     120.580    -405.951
  O     -310.816     119.766    -404.784
  P     -311.617     118.383    -404.865
  C     -313.651     119.114    -403.464
  O     -312.535     118.237    -403.560
  C     -314.570     118.706    -402.303
  O     -315.172     117.405    -402.562
  C     -313.814     118.592    -400.967
  O     -314.667     118.963    -399.875
  C     -313.545     117.102    -400.855
  O     -313.288     116.714    -399.508
  C     -314.828     116.533    -401.460
  N     -315.803     111.623    -400.383
  C     -316.154     112.768    -399.754
  N     -315.878     114.039    -400.112
  C     -315.172     114.068    -401.256
  C     -314.753     112.987    -402.016
  C     -315.087     111.710    -401.531
  N     -314.712     110.549    -402.163
  N     -314.044     113.408    -403.130
  C     -314.005     114.724    -403.015
  N     -314.699     115.167    -401.922
  O     -310.798     117.179    -405.195
  O     -312.700     118.671    -406.016
  H     -314.065     116.957    -398.976
  H     -312.772     117.885    -406.597
  H     -316.724     112.641    -398.839
  H     -313.479     115.389    -403.679
  H     -315.664     116.567    -400.746
  H     -312.672     116.838    -401.461
  H     -312.893     119.183    -400.916
  H     -315.387     119.426    -402.222
  H     -314.212     119.104    -404.402
  H     -314.894     109.676    -401.677
  H     -314.054     110.597    -402.930
  H     -313.283     120.138    -403.340
  P     -314.704     120.533    -399.511
  C     -314.391     120.316    -396.924
  O     -315.243     120.619    -398.000
  O     -315.436     121.361    -400.519
  O     -313.144     120.884    -399.399
  H     -312.637     120.287    -398.832
  H     -314.901     120.555    -395.992
  H     -313.472     120.902    -396.978
  H     -314.148     119.248    -396.923
  H     -310.146     121.460    -405.721
  H     -311.687     120.859    -406.282
  H     -310.214     120.031    -406.724

 3  4  5  6  7  8  9  10  11  12  22  25  29  30  31  32 0
 6-311+G(2d,p)
 ****
 33  36  37 0
 6-311+G(2d,p)
 ****
 1  2  13  14  15  16  17  18  19  20  21  23  24  26 0
 3-21G
 ****
 27  28  34  35  38  39  40  41  42  43  44  45  46  47  48 0
 3-21G
 ****


