%nproc=1
%NoSave
%Mem=1900MB
#P OB98/GEN NMR

erre ene a

0 1
  C     -571.824    -832.240    -238.392
  O     -571.942    -833.002    -237.199
  P     -570.640    -833.765    -236.666
  C     -570.772    -832.853    -234.195
  O     -570.859    -833.964    -235.100
  C     -570.838    -833.346    -232.748
  O     -572.188    -833.726    -232.416
  C     -569.984    -834.565    -232.457
  O     -568.613    -834.239    -232.312
  C     -570.641    -835.082    -231.165
  O     -570.174    -834.329    -230.035
  C     -572.121    -834.781    -231.427
  N     -572.888    -835.958    -231.868
  C     -573.412    -836.764    -230.864
  O     -573.258    -836.528    -229.660
  N     -574.098    -837.873    -231.279
  C     -574.251    -838.282    -232.579
  O     -574.842    -839.307    -232.898
  C     -573.639    -837.413    -233.592
  C     -573.000    -836.301    -233.192
  O     -569.545    -832.609    -236.788
  O     -570.345    -835.014    -237.447
  H     -569.945    -831.723    -236.717
  H     -569.288    -834.669    -229.816
  H     -574.503    -838.466    -230.563
  H     -573.740    -837.714    -234.630
  H     -572.543    -835.660    -233.940
  H     -572.604    -834.383    -230.534
  H     -570.418    -836.130    -230.974
  H     -570.105    -835.314    -233.245
  H     -570.560    -832.510    -232.088
  H     -571.592    -832.178    -234.389
  H     -569.827    -832.326    -234.380
  P     -567.574    -835.474    -232.322
  C     -565.496    -834.126    -233.171
  O     -566.117    -834.837    -232.123
  O     -567.613    -835.900    -233.868
  O     -567.939    -836.561    -231.367
  H     -567.603    -835.147    -234.474
  H     -564.717    -833.490    -232.758
  H     -566.223    -833.488    -233.701
  H     -565.036    -834.830    -233.875
  H     -572.767    -831.791    -238.623
  H     -571.527    -832.880    -239.196
  H     -571.089    -831.475    -238.255

 3  4  5  6  7  8  9  10  11  12  13  24  28  29  30  31  32 0
 6-311+G(2d,p)
 ****
 33  34 0
 6-311+G(2d,p)
 ****
 1  2  14  15  16  17  18  19  20  21  22  23  25  26  27 0
 3-21G
 ****
 35  36  37  38  39  40  41  42  43  44  45 0
 3-21G
 ****


