%nproc=1
%NoSave
%Mem=1900MB
#P OB98/GEN NMR

erre ene a

0 1
  C      359.118     -38.411      35.673
  O      360.209     -39.310      35.722
  H      358.714     -38.303      36.685
  H      358.341     -38.800      35.023
  H      359.448     -37.427      35.324
  P      361.018     -39.540      34.356
  C      362.871     -40.250      36.031
  O      362.309     -40.416      34.730
  C      363.132     -41.599      36.689
  O      361.846     -42.243      36.969
  C      363.964     -42.568      35.835
  O      364.789     -43.338      36.717
  C      362.904     -43.497      35.246
  O      363.447     -44.745      34.827
  C      361.940     -43.582      36.428
  N      358.678     -47.362      37.121
  C      359.897     -47.109      37.719
  N      360.328     -47.995      38.642
  N      360.642     -46.066      37.434
  C      360.084     -45.240      36.507
  C      358.899     -45.377      35.838
  C      358.088     -46.547      36.151
  O      357.014     -46.838      35.639
  N      358.700     -44.340      34.959
  C      359.760     -43.590      35.097
  N      360.645     -44.088      36.030
  O      361.613     -38.089      34.057
  O      360.209     -40.066      33.209
  H      364.183     -44.555      34.199
  H      361.018     -37.592      33.461
  H      358.156     -48.185      37.371
  H      359.950     -42.662      34.563
  H      362.308     -44.243      37.221
  H      362.431     -43.017      34.380
  H      359.785     -48.794      38.949
  H      364.581     -42.083      35.075
  H      361.200     -47.803      39.121
  H      363.611     -41.428      37.665
  H      362.164     -39.673      36.651
  H      363.805     -39.683      35.948
  P      366.177     -42.696      37.208
  C      366.312     -43.684      39.610
  O      366.837     -43.691      38.291
  O      365.689     -41.461      38.113
  O      367.081     -42.247      36.109
  H      366.368     -40.758      38.107
  H      366.846     -44.390      40.210
  H      365.276     -43.951      39.583
  H      366.418     -42.706      40.031

 6  7  8  9  10  11  12  13  14  15  26  29  33  34 0
 6-311+G(2d,p)
 ****
 36  38  39  40  41 0
 6-311+G(2d,p)
 ****
 1  2  3  4  5  16  17  18  19  20  21  22  23  24  25 0
 3-21G
 ****
 27  28  30  31  32  35  37  42  43  44  45  46  47 0
 3-21G
 ****
 48  49 0
 3-21G
 ****


