%nproc=1
%NoSave
%Mem=1900MB
#P OB98/GEN NMR

erre ene a

0 1
  C      184.857     -35.170    -105.353
  O      185.338     -35.339    -106.682
  P      184.581     -34.541    -107.852
  C      183.801     -36.570    -109.275
  O      184.697     -35.471    -109.155
  C      184.056     -37.326    -110.574
  O      183.802     -36.474    -111.710
  C      185.487     -37.823    -110.745
  O      185.723     -39.041    -110.049
  C      185.533     -38.057    -112.249
  O      184.891     -39.308    -112.570
  C      184.696     -36.886    -112.775
  N      187.538     -34.937    -116.556
  C      186.923     -36.131    -116.415
  N      186.197     -36.583    -115.375
  C      186.165     -35.666    -114.391
  C      186.772     -34.419    -114.377
  C      187.483     -34.053    -115.529
  N      188.085     -32.826    -115.684
  N      186.514     -33.767    -113.191
  C      185.755     -34.593    -112.503
  N      185.507     -35.751    -113.188
  O      185.587     -33.334    -108.170
  O      183.215     -34.056    -107.506
  H      185.445     -40.015    -112.176
  H      185.105     -32.596    -108.580
  H      187.023     -36.815    -117.258
  H      185.361     -34.398    -111.515
  H      184.068     -37.170    -113.631
  H      186.550     -38.108    -112.641
  H      186.211     -37.048    -110.472
  H      183.351     -38.170    -110.618
  H      182.771     -36.188    -109.282
  H      188.414     -32.569    -116.603
  H      187.869     -32.101    -115.003
  H      183.931     -37.229    -108.412
  P      187.118     -39.158    -109.269
  C      187.598     -41.554    -110.172
  O      187.338     -40.735    -109.048
  O      186.760     -38.618    -107.803
  O      188.241     -38.415    -109.899
  H      187.566     -38.268    -107.368
  H      188.024     -42.501    -109.832
  H      188.316     -41.075    -110.853
  H      186.661     -41.757    -110.709
  H      185.450     -35.755    -104.682
  H      183.837     -35.490    -105.299
  H      184.922     -34.138    -105.079

 3  4  5  6  7  8  9  10  11  12  22  25  29  30  31  32 0
 6-311+G(2d,p)
 ****
 33  36  37 0
 6-311+G(2d,p)
 ****
 1  2  13  14  15  16  17  18  19  20  21  23  24  26 0
 3-21G
 ****
 27  28  34  35  38  39  40  41  42  43  44  45  46  47  48 0
 3-21G
 ****


