%nproc=1
%NoSave
%Mem=1900MB
#P OB98/GEN NMR

erre ene a

0 1
  C     -249.068     214.214     -18.121
  O     -248.501     213.622     -19.303
  P     -248.288     214.420     -20.679
  C     -246.236     215.222     -22.042
  O     -246.749     214.270     -21.111
  C     -244.720     215.412     -21.843
  O     -244.478     216.269     -20.695
  C     -243.934     214.141     -21.539
  O     -243.781     213.319     -22.683
  C     -242.636     214.730     -20.999
  O     -241.731     215.075     -22.060
  C     -243.108     216.007     -20.278
  N     -243.016     215.911     -18.830
  C     -241.766     215.555     -18.311
  O     -240.839     215.262     -19.064
  N     -241.608     215.534     -16.938
  C     -242.634     215.733     -16.164
  N     -242.413     215.715     -14.824
  C     -244.000     215.981     -16.680
  C     -244.111     216.064     -18.008
  O     -248.763     215.842     -20.640
  O     -249.081     213.578     -21.789
  H     -249.354     214.170     -22.513
  H     -240.894     215.366     -21.640
  H     -244.827     216.109     -16.005
  H     -245.072     216.256     -18.465
  H     -242.533     216.872     -20.626
  H     -242.109     214.020     -20.346
  H     -244.446     213.584     -20.742
  H     -244.321     215.908     -22.737
  H     -241.461     215.557     -14.507
  H     -246.742     216.178     -21.873
  H     -243.136     215.884     -14.139
  H     -246.456     214.881     -23.064
  P     -244.459     211.869     -22.630
  C     -245.086     210.051     -24.377
  O     -244.337     211.217     -24.088
  O     -246.023     212.186     -22.479
  O     -243.977     210.995     -21.515
  H     -246.439     211.548     -21.868
  H     -245.285     210.020     -25.454
  H     -246.036     210.028     -23.836
  H     -244.492     209.170     -24.105
  H     -249.106     213.484     -17.340
  H     -250.058     214.559     -18.335
  H     -248.462     215.039     -17.809

 3  4  5  6  7  8  9  10  11  12  13  24  27  28  29  30  32 0
 6-311+G(2d,p)
 ****
 34  35 0
 6-311+G(2d,p)
 ****
 1  2  14  15  16  17  18  19  20  21  22  23  25  26 0
 3-21G
 ****
 31  33  36  37  38  39  40  41  42  43  44  45  46 0
 3-21G
 ****


