%nproc=1
%NoSave
%Mem=1900MB
#P OB98/GEN NMR

erre ene a

0 1
  C      166.788     133.104     373.123
  O      167.007     132.797     374.501
  P      168.293     131.924     374.897
  C      170.269     133.408     375.666
  O      169.096     132.698     376.056
  C      170.832     134.224     376.843
  O      169.854     135.218     377.237
  C      171.121     133.403     378.107
  O      172.409     132.808     378.248
  C      171.022     134.479     379.186
  O      172.267     135.194     379.281
  C      169.935     135.413     378.672
  N      166.633     137.006     382.246
  C      167.850     137.459     381.874
  N      168.662     136.979     380.907
  C      168.107     135.920     380.292
  C      166.869     135.348     380.563
  C      166.118     135.932     381.594
  N      164.884     135.467     381.989
  N      166.641     134.270     379.729
  C      167.727     134.188     378.980
  N      168.633     135.173     379.271
  O      169.124     131.434     373.756
  O      167.643     130.693     375.702
  H      172.458     135.542     378.389
  H      168.141     129.882     375.483
  H      168.217     138.325     382.417
  H      167.893     133.440     378.225
  H      170.167     136.471     378.840
  H      170.829     134.056     380.181
  H      170.345     132.641     378.269
  H      171.739     134.743     376.520
  H      170.020     134.088     374.839
  H      164.432     135.912     382.762
  H      164.507     134.630     381.555
  H      170.979     132.683     375.275
  P      172.579     131.278     378.710
  C      173.547     130.324     376.472
  O      173.772     130.690     377.820
  O      171.328     130.469     378.680
  O      173.245     131.428     380.154
  H      174.152     131.767     380.149
  H      174.515     130.156     375.992
  H      173.020     131.116     375.933
  H      172.972     129.393     376.434
  H      165.897     133.688     373.025
  H      166.682     132.196     372.568
  H      167.621     133.659     372.744

 3  4  5  6  7  8  9  10  11  12  22  25  29  30  31  32 0
 6-311+G(2d,p)
 ****
 33  36  37 0
 6-311+G(2d,p)
 ****
 1  2  13  14  15  16  17  18  19  20  21  23  24  26 0
 3-21G
 ****
 27  28  34  35  38  39  40  41  42  43  44  45  46  47  48 0
 3-21G
 ****


