%nproc=1
%NoSave
%Mem=1900MB
#P OB98/GEN NMR

erre ene a

0 1
  C      281.178    -510.893    -266.939
  O      280.059    -511.732    -267.149
  P      279.814    -512.389    -268.588
  C      280.445    -514.740    -267.772
  O      280.734    -513.700    -268.697
  C      280.071    -516.022    -268.516
  O      278.824    -515.851    -269.219
  C      281.080    -516.436    -269.583
  O      282.218    -517.032    -268.985
  C      280.237    -517.383    -270.429
  O      280.177    -518.687    -269.838
  C      278.856    -516.709    -270.376
  N      276.251    -516.686    -274.760
  C      276.472    -517.659    -273.857
  N      277.221    -517.601    -272.724
  C      277.772    -516.381    -272.597
  C      277.668    -515.308    -273.456
  C      276.836    -515.481    -274.584
  N      276.545    -514.473    -275.480
  N      278.410    -514.237    -272.995
  C      278.970    -514.674    -271.877
  N      278.554    -515.939    -271.565
  O      279.916    -511.445    -269.741
  O      278.339    -512.994    -268.480
  H      281.020    -519.137    -270.043
  H      277.768    -512.571    -269.150
  H      275.991    -518.612    -274.053
  H      279.648    -514.100    -271.255
  H      278.047    -517.440    -270.252
  H      280.633    -517.500    -271.445
  H      281.361    -515.571    -270.179
  H      279.934    -516.813    -267.776
  H      279.610    -514.425    -267.141
  H      275.833    -514.670    -276.161
  H      276.724    -513.512    -275.203
  H      281.315    -514.913    -267.137
  P      283.576    -517.152    -269.816
  C      284.420    -514.867    -269.017
  O      284.077    -515.666    -270.136
  O      283.534    -518.073    -270.997
  O      284.642    -517.659    -268.741
  H      285.310    -518.228    -269.173
  H      283.514    -514.509    -268.528
  H      285.007    -514.017    -269.361
  H      285.019    -515.451    -268.300
  H      281.180    -510.548    -265.926
  H      281.125    -510.055    -267.602
  H      282.076    -511.442    -267.130

 3  4  5  6  7  8  9  10  11  12  22  25  29  30  31  32 0
 6-311+G(2d,p)
 ****
 33  36  37 0
 6-311+G(2d,p)
 ****
 1  2  13  14  15  16  17  18  19  20  21  23  24  26 0
 3-21G
 ****
 27  28  34  35  38  39  40  41  42  43  44  45  46  47  48 0
 3-21G
 ****


