%nproc=1
%NoSave
%Mem=1900MB
#P OB98/GEN NMR

erre ene a

0 1
  C     -384.963     426.769    -549.853
  O     -386.207     426.297    -549.376
  H     -384.241     426.760    -549.026
  H     -385.059     427.794    -550.226
  H     -384.591     426.121    -550.650
  P     -387.429     426.335    -550.418
  C     -389.797     427.398    -550.198
  O     -388.450     427.386    -549.765
  C     -390.565     428.509    -549.478
  O     -390.953     428.082    -548.150
  C     -389.760     429.787    -549.270
  O     -389.686     430.594    -550.436
  C     -390.580     430.452    -548.181
  O     -391.773     431.020    -548.750
  C     -390.918     429.240    -547.283
  N     -389.951     429.044    -546.194
  C     -390.409     429.246    -544.892
  O     -391.575     429.586    -544.687
  N     -389.527     429.093    -543.843
  C     -388.295     428.759    -544.076
  N     -387.469     428.639    -543.005
  C     -387.771     428.516    -545.433
  C     -388.636     428.670    -546.426
  O     -388.172     424.936    -550.174
  O     -387.059     426.593    -551.839
  H     -392.237     431.486    -548.022
  H     -389.019     424.910    -550.688
  H     -386.733     428.244    -545.582
  H     -388.324     428.518    -547.462
  H     -391.911     429.351    -546.833
  H     -390.048     431.262    -547.674
  H     -388.761     429.575    -548.876
  H     -391.490     428.704    -550.038
  H     -387.833     428.866    -542.089
  H     -390.248     426.429    -549.965
  H     -386.462     428.560    -543.098
  H     -389.848     427.569    -551.276
  P     -389.004     432.038    -550.299
  C     -389.940     434.467    -550.383
  O     -390.193     433.096    -550.085
  O     -388.524     432.356    -551.798
  O     -387.877     432.122    -549.322
  H     -387.654     432.798    -551.797
  H     -390.822     435.042    -550.191
  H     -389.668     434.564    -551.413
  H     -389.140     434.824    -549.768

 6  7  8  9  10  11  12  13  14  15  16  26  30  31  32  33  35 0
 6-311+G(2d,p)
 ****
 37  38 0
 6-311+G(2d,p)
 ****
 1  2  3  4  5  17  18  19  20  21  22  23  24  25 0
 3-21G
 ****
 27  28  29  34  36  39  40  41  42  43  44  45  46 0
 3-21G
 ****


