%nproc=1
%NoSave
%Mem=1900MB
#P OB98/GEN NMR

erre ene a

0 1
  C      185.399      17.234    -364.163
  O      185.906      18.475    -363.669
  P      185.983      19.736    -364.660
  C      184.999      21.439    -362.995
  O      186.123      21.073    -363.783
  C      185.386      22.496    -361.953
  O      186.211      21.904    -360.904
  C      186.194      23.656    -362.558
  O      185.899      24.884    -361.875
  C      187.626      23.275    -362.230
  O      188.495      24.406    -362.272
  C      187.443      22.648    -360.846
  N      192.282      22.471    -359.166
  C      191.438      23.510    -359.366
  N      190.156      23.474    -359.795
  C      189.758      22.212    -360.010
  C      190.501      21.056    -359.844
  C      191.831      21.215    -359.406
  N      192.699      20.160    -359.234
  N      189.759      19.938    -360.166
  C      188.597      20.421    -360.574
  N      188.537      21.783    -360.465
  O      184.937      19.784    -365.724
  O      187.447      19.590    -365.300
  H      188.420      24.862    -361.414
  H      187.401      19.791    -366.257
  H      191.846      24.491    -359.160
  H      187.779      19.825    -360.961
  H      187.335      23.415    -360.069
  H      187.991      22.535    -362.955
  H      186.041      23.799    -363.635
  H      184.472      22.872    -361.472
  H      184.599      20.553    -362.497
  H      193.662      20.379    -359.032
  H      192.422      19.243    -359.550
  H      184.202      21.801    -363.655
  P      185.465      26.121    -362.813
  C      183.691      26.888    -361.047
  O      184.822      27.207    -361.826
  O      184.629      25.717    -363.985
  O      186.882      26.745    -363.224
  H      187.486      26.906    -362.473
  H      183.491      27.707    -360.357
  H      183.864      25.978    -360.463
  H      182.814      26.751    -361.697
  H      185.416      16.505    -363.380
  H      186.008      16.898    -364.976
  H      184.393      17.369    -364.502

 3  4  5  6  7  8  9  10  11  12  22  25  29  30  31  32 0
 6-311+G(2d,p)
 ****
 33  36  37 0
 6-311+G(2d,p)
 ****
 1  2  13  14  15  16  17  18  19  20  21  23  24  26 0
 3-21G
 ****
 27  28  34  35  38  39  40  41  42  43  44  45  46  47  48 0
 3-21G
 ****


