%nproc=1
%NoSave
%Mem=1900MB
#P OB98/GEN NMR

erre ene a

0 1
  C      141.208     -11.262     -62.377
  O      141.007     -11.011     -63.768
  P      141.163     -12.233     -64.796
  C      143.038     -13.833     -65.564
  O      142.719     -12.606     -64.914
  C      144.453     -13.775     -66.170
  O      144.435     -12.886     -67.317
  C      145.533     -13.227     -65.231
  O      146.224     -14.139     -64.385
  C      146.562     -12.704     -66.236
  O      147.402     -13.786     -66.681
  C      145.708     -12.208     -67.400
  N      147.857      -7.673     -68.418
  C      148.313      -8.939     -68.549
  N      147.678     -10.092     -68.255
  C      146.439      -9.850     -67.792
  C      145.838      -8.614     -67.608
  C      146.604      -7.484     -67.942
  N      146.143      -6.193     -67.799
  N      144.560      -8.763     -67.108
  C      144.402     -10.066     -66.973
  N      145.503     -10.766     -67.387
  O      140.435     -12.094     -66.089
  O      140.583     -13.468     -63.951
  H      146.819     -14.418     -67.144
  H      140.091     -14.061     -64.551
  H      149.324      -9.039     -68.939
  H      143.511     -10.544     -66.585
  H      146.148     -12.455     -68.376
  H      147.225     -11.952     -65.801
  H      145.145     -12.391     -64.633
  H      144.734     -14.778     -66.519
  H      142.309     -14.029     -66.354
  H      146.775      -5.439     -68.019
  H      145.235      -6.034     -67.390
  H      142.930     -14.634     -64.828
  P      146.085     -14.069     -62.792
  C      146.949     -12.381     -60.984
  O      146.843     -12.726     -62.350
  O      146.518     -15.294     -62.060
  O      144.540     -13.690     -62.593
  H      144.307     -12.793     -62.885
  H      147.671     -11.566     -60.884
  H      147.291     -13.233     -60.391
  H      145.975     -12.035     -60.616
  H      141.070     -10.355     -61.827
  H      142.202     -11.626     -62.220
  H      140.503     -11.994     -62.041

 3  4  5  6  7  8  9  10  11  12  22  25  29  30  31  32 0
 6-311+G(2d,p)
 ****
 33  36  37 0
 6-311+G(2d,p)
 ****
 1  2  13  14  15  16  17  18  19  20  21  23  24  26 0
 3-21G
 ****
 27  28  34  35  38  39  40  41  42  43  44  45  46  47  48 0
 3-21G
 ****


