%nproc=1
%NoSave
%Mem=1900MB
#P OB98/GEN NMR

erre ene a

0 1
  C      -23.973    -198.855     128.080
  O      -24.392    -197.570     127.644
  P      -25.918    -197.104     127.828
  C      -27.451    -196.727     129.857
  O      -26.310    -197.413     129.354
  C      -28.211    -197.600     130.854
  O      -28.937    -198.619     130.123
  C      -27.302    -198.312     131.852
  O      -27.968    -198.384     133.118
  C      -27.178    -199.726     131.306
  O      -26.884    -200.664     132.354
  C      -28.539    -199.908     130.629
  N      -30.622    -204.111     128.536
  C      -30.942    -203.409     129.643
  N      -30.331    -202.314     130.152
  C      -29.313    -201.927     129.362
  C      -28.872    -202.543     128.203
  C      -29.573    -203.692     127.786
  N      -29.252    -204.402     126.653
  N      -27.779    -201.878     127.679
  C      -27.584    -200.866     128.499
  N      -28.492    -200.848     129.528
  O      -26.870    -197.650     126.820
  O      -25.858    -195.508     127.784
  H      -26.008    -200.426     132.718
  H      -26.630    -195.151     127.306
  H      -31.805    -203.765     130.196
  H      -26.797    -200.133     128.401
  H      -29.302    -200.246     131.342
  H      -26.356    -199.768     130.579
  H      -26.327    -197.823     131.964
  H      -28.946    -196.979     131.372
  H      -28.108    -196.488     129.014
  H      -29.883    -205.139     126.368
  H      -28.587    -203.994     126.005
  H      -27.134    -195.791     130.328
  P      -27.013    -198.383     134.418
  C      -25.178    -196.727     135.240
  O      -26.014    -197.152     134.189
  O      -26.401    -199.724     134.660
  O      -28.032    -197.892     135.549
  H      -28.768    -197.369     135.170
  H      -24.607    -195.858     134.907
  H      -24.478    -197.524     135.512
  H      -25.774    -196.445     136.115
  H      -22.931    -198.980     127.873
  H      -24.532    -199.607     127.563
  H      -24.141    -198.947     129.133

 3  4  5  6  7  8  9  10  11  12  22  25  29  30  31  32 0
 6-311+G(2d,p)
 ****
 33  36  37 0
 6-311+G(2d,p)
 ****
 1  2  13  14  15  16  17  18  19  20  21  23  24  26 0
 3-21G
 ****
 27  28  34  35  38  39  40  41  42  43  44  45  46  47  48 0
 3-21G
 ****


