%nproc=1
%NoSave
%Mem=1900MB
#P OB98/GEN NMR

erre ene a

0 1
  C      913.302    -893.200      99.653
  O      913.408    -894.380     100.472
  P      912.516    -894.420     101.815
  C      910.164    -894.930     100.775
  O      911.040    -893.970     101.380
  C      909.042    -895.300     101.758
  O      908.318    -894.140     102.117
  C      908.058    -896.290     101.185
  O      908.575    -897.620     101.191
  C      906.872    -896.090     102.131
  O      906.985    -896.930     103.294
  C      906.980    -894.580     102.511
  N      905.952    -893.780     101.896
  C      905.173    -893.000     102.778
  O      905.406    -893.050     103.971
  N      904.190    -892.220     102.253
  C      903.937    -892.230     100.974
  N      902.942    -891.410     100.528
  C      904.716    -893.040     100.030
  C      905.688    -893.790     100.540
  O      913.056    -893.190     102.640
  O      912.604    -895.710     102.564
  H      906.875    -897.850     102.968
  H      912.942    -893.330     103.617
  H      904.484    -893.000      98.966
  H      906.313    -894.430      99.914
  H      906.911    -894.470     103.582
  H      905.910    -896.340     101.638
  H      907.767    -895.990     100.158
  H      909.517    -895.720     102.670
  H      902.418    -890.890     101.203
  H      910.768    -895.810     100.535
  H      902.699    -891.340      99.537
  H      909.756    -894.530      99.856
  P      908.163    -898.570      99.989
  C      909.915    -897.690      98.333
  O      908.555    -897.750      98.655
  O      906.566    -898.460      99.973
  O      908.655    -900.000     100.047
  H      906.206    -899.110      99.343
  H      910.032    -897.220      97.341
  H      910.380    -898.660      98.331
  H      910.449    -897.020      99.063
  H      913.939    -893.300      98.799
  H      913.599    -892.343     100.221
  H      912.289    -893.080      99.330

 3  4  5  6  7  8  9  10  11  12  13  21  23  27  28  29  30  32 0
 6-311+G(2d,p)
 ****
 34  35 0
 6-311+G(2d,p)
 ****
 1  2  14  15  16  17  18  19  20  22  24  25  26 0
 3-21G
 ****
 31  33  36  37  38  39  40  41  42  43  44  45  46 0
 3-21G
 ****


