%nproc=1
%NoSave
%Mem=1900MB
#P OB98/GEN NMR

erre ene a

0 1
  C       89.210     449.353    -144.301
  O       89.321     450.722    -144.653
  P       88.729     451.177    -146.074
  C       86.413     451.887    -145.168
  O       87.136     450.980    -145.990
  C       85.409     452.687    -145.996
  O       84.635     451.769    -146.818
  C       84.414     453.511    -145.159
  O       84.268     454.813    -145.749
  C       83.103     452.769    -145.346
  O       81.979     453.623    -145.159
  C       83.275     452.242    -146.770
  N       78.423     450.817    -146.773
  C       78.984     452.063    -146.545
  N       78.123     453.056    -146.218
  N       80.262     452.319    -146.627
  C       80.993     451.241    -146.994
  C       80.563     449.960    -147.256
  C       79.147     449.680    -147.102
  O       78.610     448.580    -147.200
  N       81.606     449.141    -147.621
  C       82.671     449.924    -147.574
  N       82.358     451.194    -147.154
  O       89.210     449.996    -147.055
  O       89.197     452.506    -146.564
  H       82.024     454.313    -145.851
  H       89.722     450.374    -147.792
  H       77.434     450.675    -146.679
  H       83.675     449.611    -147.803
  H       83.171     453.063    -147.492
  H       83.044     451.953    -144.615
  H       77.118     452.940    -146.170
  H       84.692     453.612    -144.109
  H       78.502     453.976    -146.066
  H       85.967     453.338    -146.689
  H       87.114     452.578    -144.686
  H       85.888     451.321    -144.395
  P       84.016     456.025    -144.720
  C       86.562     455.843    -144.171
  O       85.235     455.972    -143.685
  O       82.763     455.528    -143.862
  O       83.780     457.340    -145.389
  H       82.279     456.291    -143.492
  H       86.609     455.965    -145.259
  H       86.948     454.859    -143.904
  H       87.185     456.615    -143.706
  H       89.644     449.197    -143.335
  H       89.725     448.756    -145.024
  H       88.177     449.073    -144.278

 3  4  5  6  7  8  9  10  11  12  23  26  30  31  33  0
 6-311+G(2d,p)
 ****
 35  36  37  38 0
 6-311+G(2d,p)
 ****
 1  2  13  14  15  16  17  18  19  20  21  22  24  25  27  28  29 0
 3-21G
 ****
 32  34  39  40  41  42  43  44  45  46  47  48  49 0
 3-21G
 ****


