%nproc=1
%NoSave
%Mem=1900MB
#P OB98/GEN NMR

erre ene a

0 1
  C     -109.674     454.000    -221.792
  O     -108.409     454.385    -222.349
  P     -107.828     455.883    -222.275
  C     -105.294     455.408    -222.134
  O     -106.358     455.920    -222.924
  C     -103.944     455.549    -222.841
  O     -103.887     454.663    -224.003
  C     -103.621     456.974    -223.337
  O     -102.227     457.183    -223.113
  C     -103.946     456.871    -224.824
  O     -103.362     457.899    -225.602
  C     -103.411     455.463    -225.109
  N     -103.819     454.879    -226.385
  C     -103.061     455.199    -227.520
  O     -102.115     455.993    -227.462
  N     -103.406     454.630    -228.721
  C     -104.413     453.820    -228.795
  N     -104.696     453.279    -230.013
  C     -105.251     453.473    -227.628
  C     -104.899     454.029    -226.471
  O     -107.882     456.475    -220.899
  O     -108.723     456.740    -223.290
  H     -108.848     457.638    -222.930
  H     -103.438     457.648    -226.542
  H     -106.081     452.786    -227.731
  H     -105.449     453.798    -225.559
  H     -102.315     455.478    -225.047
  H     -105.028     456.925    -224.951
  H     -104.181     457.757    -222.811
  H     -103.162     455.204    -222.153
  H     -104.086     453.531    -230.786
  H     -105.487     454.349    -221.942
  H     -105.451     452.625    -230.173
  H     -105.280     455.938    -221.172
  P     -101.724     457.763    -221.709
  C      -99.777     456.026    -221.676
  O     -100.170     457.382    -221.549
  O     -102.414     456.761    -220.672
  O     -102.109     459.180    -221.396
  H     -102.530     457.213    -219.808
  H      -98.873     455.976    -222.295
  H     -100.552     455.405    -222.124
  H      -99.538     455.635    -220.678
  H     -109.838     452.957    -221.967
  H     -110.455     454.567    -222.254
  H     -109.672     454.189    -220.739

 3  4  5  6  7  8  9  10  11  12  13  24  27  28  29  30  32 0
 6-311+G(2d,p)
 ****
 34  35 0
 6-311+G(2d,p)
 ****
 1  2  14  15  16  17  18  19  20  21  22  23  25  26 0
 3-21G
 ****
 31  33  36  37  38  39  40  41  42  43  44  45  46 0
 3-21G
 ****


