%nproc=1
%NoSave
%Mem=1900MB
#P OB98/GEN NMR

erre ene a

0 1
  C      471.864      71.894    -299.587
  O      471.884      70.481    -299.608
  H      471.825      72.258    -300.618
  H      472.770      72.284    -299.116
  H      470.982      72.259    -299.054
  P      471.945      69.705    -298.208
  C      469.388      69.601    -297.846
  O      470.578      68.867    -298.109
  C      468.332      69.275    -298.891
  O      468.696      69.831    -300.167
  C      468.125      67.774    -299.117
  O      467.288      67.234    -298.112
  C      467.480      67.791    -300.495
  O      466.100      68.177    -300.382
  C      468.287      68.891    -301.201
  N      470.280      67.689    -305.705
  C      468.996      68.074    -305.376
  N      468.101      68.101    -306.394
  N      468.615      68.382    -304.166
  C      469.597      68.240    -303.246
  C      470.896      67.851    -303.441
  C      471.324      67.568    -304.801
  O      472.452      67.236    -305.135
  N      471.581      67.760    -302.259
  C      470.706      68.136    -301.350
  N      469.478      68.422    -301.898
  O      472.232      70.539    -296.997
  O      473.052      68.575    -298.438
  H      465.668      67.520    -299.807
  H      473.935      68.885    -298.159
  H      470.508      67.442    -306.656
  H      470.904      68.209    -300.286
  H      467.684      69.445    -301.931
  H      467.507      66.822    -300.990
  H      468.268      67.611    -307.263
  H      469.081      67.237    -299.187
  H      467.143      68.338    -306.167
  H      467.395      69.757    -298.588
  H      469.644      70.669    -297.875
  H      469.005      69.361    -296.848
  P      467.669      65.863    -297.361
  C      468.477      66.944    -295.156
  O      467.465      66.173    -295.803
  O      469.007      65.307    -297.716
  O      466.457      64.877    -297.682
  H      466.572      64.364    -298.519
  H      468.220      67.077    -294.126
  H      468.555      67.900    -295.631
  H      469.414      66.433    -295.226

 6  7  8  9  10  11  12  13  14  15  26  29  33  34 0
 6-311+G(2d,p)
 ****
 36  38  39  40  41 0
 6-311+G(2d,p)
 ****
 1  2  3  4  5  16  17  18  19  20  21  22  23  24  25 0
 3-21G
 ****
 27  28  30  31  32  35  37  42  43  44  45  46  47 0
 3-21G
 ****
 48  49 0
 3-21G
 ****


