%nproc=1
%NoSave
%Mem=1900MB
#P OB98/GEN NMR

erre ene a

0 1
  C      -11.667     215.916    -189.774
  O      -11.863     214.667    -189.139
  P      -13.001     214.499    -188.022
  C      -11.552     213.040    -186.480
  O      -12.286     214.254    -186.610
  C      -10.230     213.291    -185.757
  O       -9.578     214.473    -186.270
  C      -10.378     213.540    -184.263
  O      -10.687     212.354    -183.555
  C       -9.023     214.151    -183.935
  O       -8.024     213.132    -183.783
  C       -8.747     214.991    -185.202
  N       -8.978     216.413    -184.987
  C       -8.082     217.058    -184.126
  O       -7.211     216.418    -183.537
  N       -8.205     218.415    -183.955
  C       -9.202     219.045    -184.491
  N       -9.238     220.397    -184.334
  C      -10.262     218.369    -185.269
  C      -10.074     217.070    -185.494
  O      -14.079     213.524    -188.358
  O      -13.604     215.975    -187.861
  H      -14.578     215.926    -187.924
  H       -7.183     213.597    -183.593
  H      -11.109     218.931    -185.637
  H      -10.788     216.494    -186.078
  H       -7.712     214.846    -185.532
  H       -9.042     214.729    -183.004
  H      -11.165     214.283    -184.090
  H       -9.574     212.430    -185.940
  H       -8.487     220.826    -183.809
  H      -11.355     212.643    -187.480
  H       -9.763     221.004    -184.960
  H      -12.156     212.310    -185.936
  P      -12.172     212.229    -182.958
  C      -11.212     211.968    -180.569
  O      -12.106     212.659    -181.417
  O      -12.417     210.648    -182.905
  O      -13.226     212.916    -183.763
  H      -13.351     210.453    -183.115
  H      -11.028     212.579    -179.679
  H      -10.257     211.769    -181.063
  H      -11.665     211.019    -180.254
  H      -10.870     215.834    -190.484
  H      -11.417     216.654    -189.040
  H      -12.566     216.205    -190.278

 3  4  5  6  7  8  9  10  11  12  13  24  27  28  29  30  32 0
 6-311+G(2d,p)
 ****
 34  35 0
 6-311+G(2d,p)
 ****
 1  2  14  15  16  17  18  19  20  21  22  23  25  26 0
 3-21G
 ****
 31  33  36  37  38  39  40  41  42  43  44  45  46 0
 3-21G
 ****


