%nproc=1
%NoSave
%Mem=1900MB
#P OB98/GEN NMR

erre ene a

0 1
  C     -890.140    -892.300    -897.320
  O     -890.460    -892.240    -895.930
  P     -892.020    -892.170    -895.550
  C     -892.620    -894.700    -895.290
  O     -892.690    -893.520    -896.120
  C     -893.900    -895.500    -895.390
  O     -894.970    -894.750    -894.760
  C     -894.350    -895.840    -896.820
  O     -894.900    -897.160    -896.810
  C     -895.430    -894.840    -897.090
  O     -896.330    -895.310    -898.110
  C     -896.060    -894.670    -895.700
  N     -896.800    -893.420    -895.570
  C     -898.150    -893.500    -895.230
  O     -898.680    -894.600    -895.120
  N     -898.860    -892.340    -895.050
  C     -898.300    -891.200    -895.310
  N     -899.050    -890.070    -895.130
  C     -896.910    -891.080    -895.820
  C     -896.210    -892.210    -895.880
  O     -892.580    -891.050    -896.540
  O     -892.300    -891.850    -894.110
  H     -895.780    -895.820    -898.770
  H     -893.320    -890.560    -896.130
  H     -896.500    -890.090    -896.030
  H     -895.190    -892.210    -896.210
  H     -896.750    -895.510    -895.490
  H     -895.010    -893.900    -897.430
  H     -893.510    -895.810    -897.530
  H     -893.770    -896.420    -894.800
  H     -900.000    -890.190    -894.820
  H     -892.480    -894.390    -894.260
  H     -898.700    -889.140    -895.300
  H     -891.750    -895.290    -895.610
  P     -894.350    -898.210    -897.880
  C     -892.220    -898.970    -896.650
  O     -892.750    -898.180    -897.700
  O     -894.530    -897.390    -899.260
  O     -895.010    -899.550    -897.970
  H     -894.280    -897.950    -900.000
  H     -891.150    -898.980    -896.730
  H     -892.590    -900.000    -896.720
  H     -892.520    -898.540    -895.680
  H     -889.078    -892.343    -897.440
  H     -890.520    -891.429    -897.811
  H     -890.583    -893.174    -897.751

 3  4  5  6  7  8  9  10  11  12  13  21  23  27  28  29  30  32 0
 6-311+G(2d,p)
 ****
 34  35 0
 6-311+G(2d,p)
 ****
 1  2  14  15  16  17  18  19  20  22  24  25  26 0
 3-21G
 ****
 31  33  36  37  38  39  40  41  42  43  44  45  46 0
 3-21G
 ****


