%nproc=1
%NoSave
%Mem=1900MB
#P OB98/GEN NMR

erre ene a

0 1
  C     -382.742     410.491    -396.866
  O     -383.800     409.553    -396.783
  H     -382.310     410.450    -397.869
  H     -381.964     410.245    -396.138
  H     -383.119     411.502    -396.684
  P     -384.583     409.481    -395.388
  C     -384.189     408.055    -393.260
  O     -383.618     408.616    -394.439
  C     -383.948     406.548    -393.223
  O     -384.771     405.870    -394.188
  C     -382.518     406.128    -393.544
  O     -381.677     406.280    -392.407
  C     -382.720     404.664    -393.905
  O     -382.831     403.879    -392.704
  C     -384.065     404.687    -394.650
  N     -382.767     402.106    -398.893
  C     -382.573     401.833    -397.583
  N     -382.907     402.582    -396.512
  C     -383.502     403.729    -396.891
  C     -383.755     404.143    -398.194
  C     -383.373     403.274    -399.225
  N     -383.581     403.542    -400.563
  N     -384.377     405.377    -398.205
  C     -384.534     405.676    -396.925
  N     -383.989     404.731    -396.103
  O     -386.007     409.037    -395.466
  O     -384.363     410.973    -394.835
  H     -382.722     402.938    -392.951
  H     -383.466     411.283    -395.042
  H     -382.090     400.882    -397.369
  H     -385.053     406.562    -396.554
  H     -384.689     403.811    -394.391
  H     -381.879     404.256    -394.473
  H     -382.131     406.667    -394.417
  H     -384.238     406.182    -392.225
  H     -385.262     408.258    -393.227
  H     -383.123     402.951    -401.232
  H     -383.921     404.455    -400.801
  H     -383.714     408.535    -392.402
  P     -380.260     407.032    -392.532
  C     -377.840     406.276    -392.968
  O     -379.226     405.950    -393.117
  O     -379.807     407.720    -391.287
  O     -380.452     408.049    -393.741
  H     -379.987     408.897    -393.558
  H     -377.243     405.494    -393.388
  H     -377.608     406.382    -391.929
  H     -377.633     407.195    -393.476

 6  7  8  9  10  11  12  13  14  15  25  28  32  33  34  35 0
 6-311+G(2d,p)
 ****
 36  39  40 0
 6-311+G(2d,p)
 ****
 1  2  3  4  5  16  17  18  19  20  21  22  23  24 0
 3-21G
 ****
 26  27  29  30  31  37  38  41  42  43  44  45  46  47 0
 3-21G
 ****
 48 0
 3-21G
 ****


