%nproc=1
%NoSave
%Mem=1900MB
#P OB98/GEN NMR

erre ene a

0 1
  C       -2.945    -148.324     309.293
  O       -1.865    -147.528     309.742
  H       -3.786    -148.198     309.982
  H       -2.653    -149.378     309.281
  H       -3.257    -148.011     308.293
  P       -0.534    -147.563     308.848
  C        1.370    -149.320     308.568
  O        0.318    -148.817     309.376
  C        2.603    -149.628     309.428
  O        3.170    -148.370     309.897
  C        2.294    -150.470     310.678
  O        3.470    -151.231     311.000
  C        2.084    -149.392     311.731
  O        2.109    -149.940     313.030
  C        3.211    -148.437     311.340
  N        5.167    -145.092     314.677
  C        5.577    -146.318     314.289
  N        5.010    -147.144     313.386
  C        3.916    -146.582     312.845
  C        3.383    -145.335     313.135
  C        4.052    -144.572     314.104
  N        3.633    -143.326     314.509
  N        2.247    -145.103     312.378
  C        2.101    -146.192     311.645
  N        3.081    -147.112     311.900
  O        0.291    -146.294     309.368
  O       -0.748    -147.525     307.372
  H        1.735    -149.308     313.681
  H        0.122    -145.527     308.790
  H        6.480    -146.687     314.770
  H        1.308    -146.368     310.929
  H        4.194    -148.824     311.630
  H        1.107    -148.913     311.609
  H        1.445    -151.146     310.550
  H        3.366    -150.106     308.802
  H        1.622    -148.566     307.815
  H        1.039    -150.235     308.066
  H        4.163    -142.851     315.224
  H        2.797    -142.934     314.106
  P        3.532    -152.785     310.590
  C        2.767    -155.065     311.626
  O        2.863    -153.654     311.763
  O        5.091    -153.120     310.780
  O        3.087    -153.108     309.201
  H        5.346    -153.844     310.176
  H        2.298    -155.477     312.495
  H        3.747    -155.480     311.519
  H        2.183    -155.300     310.761

 6  7  8  9  10  11  12  13  14  15  25  28  32  33  34  35 0
 6-311+G(2d,p)
 ****
 36  37  40 0
 6-311+G(2d,p)
 ****
 1  2  3  4  5  16  17  18  19  20  21  22  23  24 0
 3-21G
 ****
 26  27  29  30  31  38  39 41  42  43  44  45  46  47  48 0
 3-21G
 ****


