%nproc=1
%NoSave
%Mem=1900MB
#P OB98/GEN NMR

erre ene a

0 1
  C      -95.736    -247.701      -5.806
  O      -96.662    -248.516      -5.119
  H      -96.191    -246.718      -5.964
  H      -95.490    -248.129      -6.781
  H      -94.826    -247.572      -5.213
  P      -96.328    -250.077      -4.919
  C      -95.505    -249.875      -2.492
  O      -96.545    -250.349      -3.341
  C      -95.913    -249.930      -1.019
  O      -97.050    -249.055      -0.796
  C      -96.307    -251.334      -0.534
  O      -95.667    -251.600       0.718
  C      -97.816    -251.239      -0.348
  O      -98.307    -252.200       0.586
  C      -97.973    -249.769       0.052
  N      -99.340    -249.276      -0.100
  C     -100.141    -249.281       1.050
  O      -99.692    -249.719       2.112
  N     -101.430    -248.825       0.961
  C     -101.908    -248.453      -0.191
  N     -103.198    -248.024      -0.209
  C     -101.115    -248.476      -1.439
  C      -99.851    -248.888      -1.319
  O      -94.999    -250.503      -5.450
  O      -97.562    -250.842      -5.589
  H      -97.910    -253.074       0.367
  H      -97.299    -251.772      -5.795
  H     -101.558    -248.165      -2.373
  H      -99.191    -248.929      -2.185
  H      -97.664    -249.615       1.098
  H      -98.315    -251.418      -1.310
  H      -96.040    -252.125      -1.234
  H      -95.090    -249.516      -0.419
  H     -103.707    -248.023       0.666
  H      -95.254    -248.848      -2.784
  H     -103.672    -247.717      -1.049
  H      -94.624    -250.516      -2.641
  P      -94.782    -252.942       0.789
  C      -92.307    -252.403       0.223
  O      -93.292    -252.525       1.238
  O      -94.619    -253.349      -0.749
  O      -95.409    -254.036       1.592
  H      -95.239    -254.068      -0.975
  H      -91.373    -252.123       0.664
  H      -92.609    -251.654      -0.479
  H      -92.196    -253.340      -0.281

 6  7  8  9  10  11  12  13  14  15  16  26  30  31  32  33  35 0
 6-311+G(2d,p)
 ****
 37  38 0
 6-311+G(2d,p)
 ****
 1  2  3  4  5  17  18  19  20  21  22  23  24  25 0
 3-21G
 ****
 27  28  29  34  36  39  40  41  42  43  44  45  46 0
 3-21G
 ****


