%nproc=1
%NoSave
%Mem=1900MB
#P OB98/GEN NMR

erre ene a

0 1
  C       26.851     -66.496     238.901
  O       27.492     -65.285     238.563
  P       27.142     -63.919     239.320
  C       25.216     -63.574     237.644
  O       26.357     -62.993     238.264
  C       25.190     -63.230     236.150
  O       24.038     -63.890     235.539
  C       25.064     -61.717     235.886
  O       26.055     -61.186     235.005
  C       23.627     -61.579     235.412
  O       23.377     -60.400     234.669
  C       23.408     -62.912     234.690
  N       21.994     -63.200     234.462
  C       21.321     -62.390     233.552
  O       21.837     -61.465     232.931
  N       19.983     -62.630     233.412
  C       19.243     -63.501     234.155
  O       18.029     -63.595     234.046
  C       20.003     -64.302     235.128
  C       21.324     -64.137     235.221
  O       28.293     -63.246     239.990
  O       25.968     -64.349     240.321
  H       22.482     -60.470     234.287
  H       25.176     -64.714     239.890
  H       19.482     -62.051     232.757
  H       19.441     -64.993     235.740
  H       21.910     -64.714     235.929
  H       23.924     -62.935     233.729
  H       22.984     -61.535     236.300
  H       25.198     -61.143     236.812
  H       26.101     -63.635     235.699
  H       24.316     -63.175     238.118
  H       25.219     -64.658     237.802
  P       26.578     -59.674     235.016
  C       24.457     -58.208     234.681
  O       25.599     -58.801     234.098
  O       28.032     -59.501     234.729
  O       26.231     -59.170     236.496
  H       26.872     -58.485     236.765
  H       23.684     -58.110     233.914
  H       24.714     -57.210     235.045
  H       24.065     -58.810     235.504
  H       27.226     -67.283     238.281
  H       25.796     -66.395     238.751
  H       27.045     -66.728     239.928

 3  4  5  6  7  8  9  10  11  12  13  23  28  29  30  31  32 0
 6-311+G(2d,p)
 ****
 33  34 0
 6-311+G(2d,p)
 ****
 1  2  14  15  16  17  18  19  20  21  22  24  25  26  27 0
 3-21G
 ****
 35  36  37  38  39  40  41  42  43  44  45 0
 3-21G
 ****


