%nproc=1
%NoSave
%Mem=1900MB
#P OB98/GEN NMR

erre ene a

0 1
  C        8.112     257.254     -56.898
  O        7.678     256.460     -57.983
  H        9.079     256.876     -56.548
  H        7.393     257.192     -56.075
  H        8.232     258.294     -57.210
  P        6.291     256.876     -58.672
  C        4.914     255.166     -57.278
  O        5.139     256.532     -57.608
  C        4.086     254.500     -58.374
  O        4.159     253.064     -58.226
  C        2.599     254.841     -58.331
  O        2.330     256.111     -58.898
  C        2.007     253.683     -59.123
  O        2.077     253.918     -60.535
  C        2.925     252.513     -58.741
  N       -0.812     249.136     -57.949
  C       -0.408     249.794     -59.059
  N        0.614     250.668     -59.190
  C        1.252     250.828     -58.018
  C        0.950     250.231     -56.803
  C       -0.138     249.343     -56.793
  N       -0.570     248.699     -55.657
  N        1.805     250.683     -55.818
  C        2.612     251.528     -56.425
  N        2.318     251.642     -57.754
  O        6.106     255.760     -59.807
  O        6.248     258.259     -59.233
  H        1.800     253.088     -60.970
  H        6.453     256.095     -60.655
  H       -0.984     249.596     -59.960
  H        3.412     252.085     -55.949
  H        3.187     251.892     -59.607
  H        0.956     253.526     -58.872
  H        2.228     254.791     -57.299
  H        4.517     254.765     -59.347
  H        4.367     255.109     -56.328
  H        5.879     254.665     -57.165
  H       -1.372     248.093     -55.718
  H       -0.142     248.928     -54.770
  P        1.019     256.900     -58.423
  C        0.007     256.692     -60.811
  O       -0.178     256.499     -59.417
  O        1.345     258.417     -58.812
  O        0.694     256.751     -56.975
  H        1.638     258.914     -58.023
  H       -0.873     256.380     -61.334
  H        0.844     256.114     -61.143
  H        0.189     257.728     -61.007

 6  7  8  9  10  11  12  13  14  15  25  28  32  33  34  35 0
 6-311+G(2d,p)
 ****
 36  37  40 0
 6-311+G(2d,p)
 ****
 1  2  3  4  5  16  17  18  19  20  21  22  23  24 0
 3-21G
 ****
 26  27  29  30  31  38  39 41  42  43  44  45  46  47  48 0
 3-21G
 ****


