%nproc=1
%NoSave
%Mem=1900MB
#P OB98/GEN NMR

erre ene a

0 1
  C      421.148     482.138    1842.097
  O      420.490     482.264    1843.345
  H      421.214     483.140    1841.642
  H      420.580     481.491    1841.429
  H      422.159     481.762    1842.239
  P      420.166     480.935    1844.174
  C      422.228     480.979    1845.740
  O      421.568     480.332    1844.652
  C      422.955     479.959    1846.620
  O      422.004     479.291    1847.484
  C      423.672     478.856    1845.801
  O      424.823     478.453    1846.572
  C      422.626     477.757    1845.799
  O      423.167     476.522    1845.392
  C      422.083     477.882    1847.230
  N      420.797     477.208    1847.403
  C      420.793     476.119    1848.260
  O      421.830     475.736    1848.805
  N      419.616     475.432    1848.444
  C      418.556     475.790    1847.791
  N      417.418     475.064    1848.006
  C      418.532     476.910    1846.832
  C      419.683     477.581    1846.691
  O      419.264     479.959    1843.494
  O      419.511     481.475    1845.539
  H      423.527     476.587    1844.481
  H      418.543     481.329    1845.525
  H      417.619     477.151    1846.282
  H      419.771     478.422    1846.002
  H      422.797     477.466    1847.954
  H      421.818     478.015    1845.060
  H      423.987     479.185    1844.806
  H      423.669     480.491    1847.273
  H      417.478     474.293    1848.666
  H      421.452     481.494    1846.344
  H      416.543     475.233    1847.535
  H      422.934     481.729    1845.368
  P      426.328     478.732    1846.103
  C      426.706     480.008    1848.321
  O      426.897     479.996    1846.917
  O      426.494     478.829    1844.602
  O      427.200     477.509    1846.689
  H      427.946     477.355    1846.078
  H      427.131     480.900    1848.731
  H      427.184     479.154    1848.753
  H      425.659     479.979    1848.539

 6  7  8  9  10  11  12  13  14  15  16  26  30  31  32  33  35 0
 6-311+G(2d,p)
 ****
 37  38 0
 6-311+G(2d,p)
 ****
 1  2  3  4  5  17  18  19  20  21  22  23  24  25 0
 3-21G
 ****
 27  28  29  34  36  39  40  41  42  43  44  45  46 0
 3-21G
 ****


