%nproc=1
%NoSave
%Mem=1900MB
#P OB98/GEN NMR

erre ene a

0 1
  C      -40.839     -40.052    -314.511
  O      -39.939     -40.439    -313.498
  P      -40.431     -40.576    -311.977
  C      -38.303     -41.948    -311.508
  O      -39.112     -40.848    -311.103
  C      -36.940     -41.877    -310.826
  O      -36.167     -40.749    -311.319
  C      -37.008     -41.655    -309.323
  O      -37.562     -42.688    -308.538
  C      -35.576     -41.245    -309.018
  O      -34.721     -42.383    -308.913
  C      -35.221     -40.412    -310.275
  N      -35.213     -38.978    -309.993
  C      -33.998     -38.445    -309.574
  O      -32.974     -39.112    -309.435
  N      -34.001     -37.109    -309.281
  C      -35.086     -36.281    -309.322
  O      -35.026     -35.100    -309.002
  C      -36.345     -36.904    -309.756
  C      -36.354     -38.202    -310.067
  O      -41.536     -41.551    -311.753
  O      -40.799     -39.070    -311.574
  H      -35.020     -43.035    -309.575
  H      -40.059     -38.439    -311.636
  H      -33.136     -36.705    -308.961
  H      -37.222     -36.270    -309.813
  H      -37.271     -38.684    -310.390
  H      -34.228     -40.693    -310.649
  H      -35.502     -40.698    -308.071
  H      -37.639     -40.775    -309.135
  H      -36.382     -42.784    -311.077
  H      -38.162     -41.903    -312.594
  H      -38.817     -42.887    -311.275
  P      -38.028     -42.489    -307.018
  C      -38.451     -45.027    -306.711
  O      -37.798     -43.868    -306.235
  O      -39.325     -41.780    -306.800
  O      -36.835     -41.581    -306.436
  H      -37.191     -41.000    -305.738
  H      -38.219     -45.859    -306.037
  H      -38.093     -45.282    -307.712
  H      -39.535     -44.881    -306.726
  H      -40.326     -40.018    -315.450
  H      -41.235     -39.084    -314.285
  H      -41.639     -40.760    -314.567

 3  4  5  6  7  8  9  10  11  12  13  23  28  29  30  31  32 0
 6-311+G(2d,p)
 ****
 33  34 0
 6-311+G(2d,p)
 ****
 1  2  14  15  16  17  18  19  20  21  22  24  25  26  27 0
 3-21G
 ****
 35  36  37  38  39  40  41  42  43  44  45 0
 3-21G
 ****


