%nproc=1
%NoSave
%Mem=1900MB
#P OB98/GEN NMR

erre ene a

0 1
  C       87.423    -790.954     146.496
  O       88.152    -789.830     146.966
  P       89.562    -790.114     147.692
  C       88.724    -788.694     149.702
  O       89.285    -789.926     149.261
  C       88.878    -788.549     151.212
  O       87.983    -789.451     151.896
  C       90.262    -788.870     151.744
  O       91.156    -787.783     151.600
  C       89.964    -789.122     153.211
  O       89.819    -787.868     153.900
  C       88.614    -789.844     153.143
  N       86.216    -794.201     154.326
  C       85.850    -792.909     154.459
  N       86.547    -791.800     154.130
  C       87.763    -792.135     153.646
  C       88.283    -793.406     153.487
  C       87.448    -794.479     153.836
  N       87.811    -795.797     153.673
  N       89.556    -793.341     152.968
  C       89.795    -792.059     152.805
  N       88.738    -791.287     153.190
  O       90.420    -788.813     147.314
  O       90.240    -791.376     147.283
  H       89.730    -788.078     154.852
  H       91.371    -789.017     147.373
  H       84.860    -792.740     154.877
  H       90.712    -791.648     152.407
  H       87.938    -789.541     153.953
  H       90.756    -789.680     153.723
  H       90.659    -789.791     151.291
  H       88.587    -787.524     151.486
  H       87.659    -788.675     149.447
  H       87.093    -796.497     153.773
  H       88.642    -795.994     153.124
  H       89.225    -787.871     149.188
  P       92.716    -788.101     151.789
  C       93.034    -786.423     153.752
  O       93.035    -787.773     153.325
  O       93.438    -786.914     150.985
  O       93.138    -789.448     151.298
  H       94.320    -787.194     150.685
  H       92.950    -786.401     154.843
  H       92.184    -785.880     153.328
  H       93.971    -785.943     153.455
  H       86.514    -790.624     146.039
  H       87.195    -791.600     147.318
  H       88.011    -791.485     145.777

 3  4  5  6  7  8  9  10  11  12  22  25  29  30  31  32 0
 6-311+G(2d,p)
 ****
 33  36  37 0
 6-311+G(2d,p)
 ****
 1  2  13  14  15  16  17  18  19  20  21  23  24  26 0
 3-21G
 ****
 27  28  34  35  38  39  40  41  42  43  44  45  46  47  48 0
 3-21G
 ****


