%nproc=1
%NoSave
%Mem=1900MB
#P OB98/GEN NMR

erre ene a

0 1
  C      270.492     310.996    -219.630
  O      269.672     311.300    -220.739
  H      270.812     311.935    -219.164
  H      271.381     310.446    -219.950
  H      269.931     310.410    -218.898
  P      269.178     310.063    -221.633
  C      270.020     309.964    -224.097
  O      270.331     309.780    -222.718
  C      269.801     311.452    -224.370
  O      270.936     312.212    -223.895
  C      269.668     311.796    -225.848
  O      268.384     311.507    -226.366
  C      269.963     313.284    -225.823
  O      268.794     314.055    -225.511
  C      271.018     313.406    -224.704
  N      272.362     313.609    -225.247
  C      272.688     314.922    -225.572
  O      271.927     315.870    -225.418
  N      273.936     315.108    -226.120
  C      274.835     314.124    -226.411
  O      275.911     314.356    -226.964
  C      274.427     312.754    -226.066
  C      273.225     312.561    -225.510
  O      267.986     310.694    -222.500
  O      268.734     308.860    -220.863
  H      267.127     310.369    -222.163
  H      268.145     313.862    -226.214
  H      274.191     316.053    -226.365
  H      275.117     311.947    -226.283
  H      272.896     311.556    -225.254
  H      270.789     314.253    -224.046
  H      270.326     313.628    -226.792
  H      270.458     311.291    -226.426
  H      268.910     311.779    -223.819
  H      269.107     309.416    -224.341
  H      270.844     309.574    -224.702
  P      268.229     311.414    -227.966
  C      266.772     313.310    -229.077
  O      267.992     312.926    -228.467
  O      266.792     310.724    -228.080
  O      269.346     310.676    -228.623
  H      266.235     310.919    -227.304
  H      266.814     314.347    -229.336
  H      265.965     313.145    -228.395
  H      266.617     312.728    -229.961

 6  7  8  9  10  11  12  13  14  15  16  27  31  32  33  34  35 0
 6-311+G(2d,p)
 ****
 36  37 0
 6-311+G(2d,p)
 ****
 1  2  3  4  5  17  18  19  20  21  22  23  24  25 0
 3-21G
 ****
 26  28  29  30  38  39  40  41  42  43  44  45 0
 3-21G
 ****


