%nproc=1
%NoSave
%Mem=1900MB
#P OB98/GEN NMR

erre ene a

0 1
  C     -221.762     302.827       6.004
  O     -221.538     304.114       6.588
  P     -220.258     304.934       6.060
  C     -217.738     304.303       5.860
  O     -218.948     304.172       6.596
  C     -216.587     304.709       6.779
  O     -216.693     306.098       7.157
  C     -216.534     303.945       8.095
  O     -215.941     302.662       7.932
  C     -215.638     304.854       8.928
  O     -214.254     304.586       8.622
  C     -216.035     306.254       8.440
  N     -216.456     309.805      12.040
  C     -215.341     309.372      11.340
  N     -214.177     310.001      11.629
  N     -215.366     308.422      10.449
  C     -216.601     307.907      10.240
  C     -217.780     308.245      10.871
  C     -217.732     309.280      11.885
  O     -218.689     309.673      12.552
  N     -218.835     307.505      10.393
  C     -218.302     306.744       9.456
  N     -216.945     306.941       9.336
  O     -220.296     306.266       6.945
  O     -220.285     305.230       4.599
  H     -214.127     304.801       7.680
  H     -219.865     306.999       6.466
  H     -216.378     310.536      12.725
  H     -218.848     306.043       8.836
  H     -215.159     306.896       8.277
  H     -215.761     304.698      10.003
  H     -214.100     310.791      12.252
  H     -217.529     303.882       8.552
  H     -213.359     309.726      11.102
  H     -215.647     304.573       6.226
  H     -217.857     305.052       5.073
  H     -217.521     303.350       5.361
  P     -216.764     301.403       8.492
  C     -217.081     300.418      10.873
  O     -216.310     301.239      10.023
  O     -216.073     300.163       7.748
  O     -218.235     301.463       8.242
  H     -216.716     299.436       7.639
  H     -217.373     299.491      10.375
  H     -217.980     300.960      11.192
  H     -216.487     300.167      11.759
  H     -222.636     302.387       6.436
  H     -220.917     302.198       6.191
  H     -221.900     302.934       4.948

 3  4  5  6  7  8  9  10  11  12  23  26  30  31  33  0
 6-311+G(2d,p)
 ****
 35  36  37  38 0
 6-311+G(2d,p)
 ****
 1  2  13  14  15  16  17  18  19  20  21  22  24  25  27  28  29 0
 3-21G
 ****
 32  34  39  40  41  42  43  44  45  46  47  48  49 0
 3-21G
 ****


