%nproc=1
%NoSave
%Mem=1900MB
#P OB98/GEN NMR

erre ene a

0 1
  C       85.282    -543.955    -383.291
  O       86.269    -543.238    -383.998
  H       85.576    -544.016    -382.239
  H       85.205    -544.971    -383.688
  H       84.307    -543.459    -383.355
  P       85.961    -542.757    -385.499
  C       87.484    -544.656    -386.370
  O       87.198    -543.264    -386.390
  C       88.801    -544.912    -385.635
  O       89.845    -544.122    -386.281
  C       88.766    -544.510    -384.151
  O       89.597    -545.417    -383.413
  C       89.399    -543.136    -384.191
  O       89.885    -542.740    -382.925
  C       90.481    -543.340    -385.252
  N       90.998    -542.067    -385.740
  C       91.829    -541.359    -384.889
  O       92.134    -541.735    -383.751
  N       92.261    -540.139    -385.335
  C       91.855    -539.525    -386.490
  O       92.196    -538.402    -386.809
  C       90.923    -540.302    -387.336
  C       90.548    -541.520    -386.927
  O       85.617    -541.313    -385.667
  O       84.780    -543.724    -385.989
  H       90.483    -541.978    -383.021
  H       84.294    -543.322    -386.736
  H       92.875    -539.615    -384.736
  H       90.569    -539.846    -388.248
  H       89.862    -542.116    -387.517
  H       91.311    -543.935    -384.850
  H       88.668    -542.389    -384.511
  H       87.748    -544.511    -383.730
  H       89.080    -545.966    -385.758
  H       87.558    -544.997    -387.411
  H       86.664    -545.193    -385.879
  P       89.103    -546.092    -382.039
  C       91.074    -545.872    -380.409
  O       90.344    -546.753    -381.256
  O       87.925    -547.006    -382.199
  O       88.698    -544.852    -381.109
  H       87.844    -545.034    -380.681
  H       91.872    -546.408    -379.939
  H       90.421    -545.475    -379.660
  H       91.477    -545.070    -380.991

 6  7  8  9  10  11  12  13  14  15  16  26  31  32  33  34  35 0
 6-311+G(2d,p)
 ****
 36  37 0
 6-311+G(2d,p)
 ****
 1  2  3  4  5  17  18  19  20  21  22  23  24  25 0
 3-21G
 ****
 27  28  29  30  38  39  40  41  42  43  44  45 0
 3-21G
 ****


