%nproc=1
%NoSave
%Mem=1900MB
#P OB98/GEN NMR

erre ene a

0 1
  C     -271.981    -805.091      17.443
  O     -270.942    -804.584      18.301
  P     -270.410    -805.472      19.518
  C     -267.815    -805.370      19.166
  O     -269.005    -806.140      19.081
  C     -266.591    -806.202      18.760
  O     -266.365    -807.244      19.741
  C     -266.754    -806.925      17.435
  O     -266.564    -806.053      16.339
  C     -265.669    -808.004      17.544
  O     -264.371    -807.457      17.206
  C     -265.720    -808.344      19.050
  N     -266.386    -809.628      19.299
  C     -265.656    -810.783      19.044
  O     -264.509    -810.749      18.607
  N     -266.292    -811.964      19.332
  C     -267.582    -812.111      19.744
  O     -268.092    -813.191      19.959
  C     -268.345    -810.849      19.909
  C     -267.738    -809.696      19.678
  O     -271.391    -806.744      19.452
  O     -270.442    -804.843      20.870
  H     -263.698    -808.079      17.531
  H     -271.467    -807.139      20.357
  H     -265.750    -812.806      19.176
  H     -269.378    -810.911      20.200
  H     -268.278    -808.763      19.782
  H     -264.711    -808.408      19.475
  H     -265.864    -808.835      16.878
  H     -267.731    -807.405      17.381
  H     -265.727    -805.550      18.772
  H     -267.683    -804.986      20.200
  H     -267.903    -804.488      18.513
  P     -267.830    -805.793      15.393
  C     -267.244    -803.309      15.944
  O     -268.223    -804.254      15.578
  O     -268.965    -806.619      16.167
  O     -267.588    -806.244      13.972
  H     -268.838    -806.603      17.146
  H     -266.277    -803.530      15.515
  H     -267.164    -803.262      17.041
  H     -267.580    -802.336      15.585
  H     -272.207    -804.365      16.690
  H     -272.858    -805.288      18.023
  H     -271.650    -805.996      16.978

 3  4  5  6  7  8  9  10  11  12  13  23  28  29  30  31  32 0
 6-311+G(2d,p)
 ****
 33  34 0
 6-311+G(2d,p)
 ****
 1  2  14  15  16  17  18  19  20  21  22  24  25  26 0
 3-21G
 ****
 27  35  36  37  38  39  40  41  42  43  44  45 0
 3-21G
 ****


