%nproc=1
%NoSave
%Mem=1900MB
#P OB98/GEN NMR

erre ene a

0 1
  C        9.365      -9.462       4.840
  O        9.000      -8.314       4.078
  P        9.680      -7.870       2.707
  C       11.535      -6.261       3.649
  O       11.203      -7.479       2.995
  C       13.022      -5.925       3.467
  O       13.803      -6.753       4.382
  C       13.523      -6.221       2.049
  O       14.389      -5.218       1.530
  C       14.088      -7.626       2.177
  O       14.996      -7.966       1.141
  C       14.657      -7.612       3.593
  N       16.457     -12.372       3.200
  C       16.472     -11.352       2.271
  N       17.023     -11.633       1.072
  N       15.975     -10.164       2.491
  C       15.385     -10.039       3.699
  C       15.292     -10.981       4.698
  C       15.890     -12.277       4.464
  O       15.922     -13.210       5.260
  N       14.628     -10.486       5.791
  C       14.302      -9.256       5.447
  N       14.749      -8.935       4.185
  O        8.892      -6.925       1.864
  O        9.818      -9.250       1.885
  H       15.837      -7.505       1.318
  H        9.726      -9.016       0.939
  H       16.875     -13.261       2.986
  H       13.761      -8.555       6.071
  H       15.668      -7.200       3.626
  H       13.247      -8.328       2.109
  H       17.311     -12.557       0.794
  H       12.690      -6.233       1.338
  H       16.833     -10.960       0.328
  H       13.183      -4.877       3.740
  H       11.315      -6.419       4.710
  H       10.899      -5.447       3.297
  P       14.182      -4.286       0.251
  C       15.502      -5.928      -1.210
  O       14.304      -5.190      -1.064
  O       15.496      -3.377       0.182
  O       12.962      -3.426       0.297
  H       15.251      -2.435       0.275
  H       15.575      -6.279      -2.242
  H       15.485      -6.793      -0.541
  H       16.371      -5.304      -0.984
  H        8.749      -9.522       5.713
  H       10.391      -9.384       5.133
  H        9.229     -10.342       4.247

 3  4  5  6  7  8  9  10  11  12  23  26  30  31 0
 6-311+G(2d,p)
 ****
 33  35  36  37  38 0
 6-311+G(2d,p)
 ****
 1  2  13  14  15  16  17  18  19  20  21  22  24  25 0
 3-21G
 ****
 27  28  29  32  34  39  40  41  42  43  44  45  46  47  48  49 0
 3-21G
 ****


