%nproc=1
%NoSave
%Mem=1900MB
#P OB98/GEN NMR

erre ene a

0 1
  C      538.788    -824.340     114.967
  O      539.509    -825.274     114.171
  P      539.177    -826.833     114.081
  C      540.194    -827.833     116.287
  O      539.050    -827.393     115.575
  C      539.945    -827.964     117.788
  O      538.951    -828.991     118.043
  C      541.230    -828.434     118.512
  O      542.222    -827.487     118.867
  C      540.735    -829.297     119.665
  O      540.620    -828.558     120.881
  C      539.368    -829.774     119.181
  N      540.532    -834.527     120.673
  C      540.827    -833.329     121.283
  N      541.569    -833.393     122.410
  N      540.435    -832.171     120.829
  C      539.781    -832.237     119.640
  C      539.451    -833.368     118.919
  C      539.839    -834.660     119.468
  O      539.589    -835.753     118.974
  N      538.806    -833.048     117.744
  C      538.767    -831.735     117.763
  N      539.350    -831.191     118.875
  O      540.027    -827.619     113.140
  O      537.666    -826.864     113.526
  H      540.020    -827.807     120.720
  H      537.587    -827.677     112.976
  H      540.839    -835.396     121.079
  H      538.342    -831.120     116.976
  H      538.606    -829.611     119.964
  H      541.438    -830.120     119.864
  H      541.978    -834.239     122.761
  H      541.752    -829.129     117.826
  H      541.951    -832.520     122.750
  H      539.543    -827.045     118.209
  H      540.986    -827.104     116.087
  H      540.536    -828.794     115.881
  P      543.693    -827.388     118.237
  C      544.582    -828.190     120.501
  O      544.667    -828.326     119.085
  O      544.174    -825.913     118.645
  O      543.769    -827.581     116.759
  H      544.949    -825.647     118.099
  H      545.485    -828.633     120.956
  H      543.724    -828.722     120.869
  H      544.522    -827.131     120.780
  H      539.214    -823.366     114.847
  H      538.844    -824.630     115.996
  H      537.764    -824.322     114.657

 3  4  5  6  7  8  9  10  11  12  23  26  30  31 0
 6-311+G(2d,p)
 ****
 33  35  36  37  38 0
 6-311+G(2d,p)
 ****
 1  2  13  14  15  16  17  18  19  20  21  22  24  25 0
 3-21G
 ****
 27  28  29  32  34  39  40  41  42  43  44  45  46  47  48  49 0
 3-21G
 ****


