%nproc=1
%NoSave
%Mem=1900MB
#P OB98/GEN NMR

erre ene a

0 1
  C        9.670     112.947     -70.450
  O        8.984     111.940     -69.729
  H        9.863     113.787     -69.779
  H        9.056     113.295     -71.285
  H       10.623     112.561     -70.819
  P        8.627     110.600     -70.537
  C        6.270     110.766     -69.479
  O        7.414     109.954     -69.711
  C        5.049     110.182     -70.182
  O        5.245     110.164     -71.607
  C        4.724     108.746     -69.791
  O        4.018     108.704     -68.562
  C        3.849     108.323     -70.960
  O        2.513     108.832     -70.777
  C        4.519     109.030     -72.152
  N        4.949     105.194     -75.536
  C        3.891     105.663     -74.840
  N        3.858     106.657     -73.927
  C        5.079     107.187     -73.756
  C        6.252     106.813     -74.396
  C        6.155     105.772     -75.332
  N        7.236     105.304     -76.049
  N        7.311     107.582     -73.962
  C        6.778     108.442     -73.117
  N        5.437     108.219     -72.930
  O        9.775     109.702     -70.841
  O        7.881     111.208     -71.818
  H        2.045     108.741     -71.627
  H        7.324     111.964     -71.563
  H        2.941     105.176     -75.045
  H        7.312     109.247     -72.629
  H        3.778     109.424     -72.858
  H        3.767     107.239     -71.047
  H        5.624     108.123     -69.774
  H        4.196     110.844     -69.981
  H        6.449     111.787     -69.829
  H        7.114     104.448     -76.568
  H        8.152     105.650     -75.804
  H        6.104     110.796     -68.397
  P        4.506     107.750     -67.371
  C        2.538     106.107     -67.576
  O        3.184     107.075     -66.756
  O        5.394     108.398     -66.366
  O        5.228     106.529     -68.104
  H        6.013     106.244     -67.597
  H        1.676     105.728     -67.068
  H        3.215     105.303     -67.779
  H        2.238     106.562     -68.497

 6  7  8  9  10  11  12  13  14  15  25  28  32  33  34  35 0
 6-311+G(2d,p)
 ****
 36  39  40 0
 6-311+G(2d,p)
 ****
 1  2  3  4  5  16  17  18  19  20  21  22  23  24 0
 3-21G
 ****
 26  27  29  30  31  37  38  41  42  43  44  45  46  47 0
 3-21G
 ****
 48 0
 3-21G
 ****


