%nproc=1
%NoSave
%Mem=1900MB
#P OB98/GEN NMR

erre ene a

0 1
  C      715.827    -890.860    -801.843
  O      716.568    -892.070    -801.672
  P      717.841    -892.340    -802.609
  C      716.430    -893.450    -804.461
  O      717.529    -893.590    -803.551
  C      716.452    -894.590    -805.508
  O      717.613    -894.400    -806.388
  C      716.595    -896.020    -804.930
  O      715.412    -896.720    -804.589
  C      717.228    -896.750    -806.107
  O      716.182    -897.170    -807.026
  C      718.114    -895.700    -806.763
  N      722.735    -897.090    -808.433
  C      721.539    -897.060    -809.033
  N      720.341    -896.690    -808.518
  C      720.488    -896.280    -807.231
  C      721.658    -896.240    -806.489
  C      722.835    -896.680    -807.153
  N      724.052    -896.710    -806.528
  N      721.402    -895.760    -805.231
  C      720.119    -895.530    -805.207
  N      719.509    -895.830    -806.406
  O      719.166    -892.350    -801.925
  O      717.755    -891.100    -803.640
  H      715.596    -897.770    -806.532
  H      718.674    -890.800    -803.855
  H      721.526    -897.410    -810.067
  H      719.555    -895.180    -804.339
  H      718.069    -895.760    -807.873
  H      717.736    -897.670    -805.803
  H      717.290    -896.020    -804.092
  H      715.554    -894.550    -806.121
  H      716.481    -892.480    -804.972
  H      724.859    -897.070    -807.027
  H      724.127    -896.450    -805.544
  H      715.529    -893.450    -803.870
  P      714.918    -896.840    -803.049
  C      716.301    -899.010    -802.580
  O      715.039    -898.390    -802.679
  O      713.580    -896.220    -802.771
  O      716.133    -896.180    -802.256
  H      716.965    -896.710    -802.275
  H      716.189    -900.000    -802.108
  H      716.988    -898.410    -801.962
  H      716.737    -899.140    -803.581
  H      715.016    -890.837    -801.145
  H      715.441    -890.816    -802.840
  H      716.469    -890.021    -801.672

 3  4  5  6  7  8  9  10  11  12  22  25  29  30  31  32 0
 6-311+G(2d,p)
 ****
 33  36  37 0
 6-311+G(2d,p)
 ****
 1  2  13  14  15  16  17  18  19  20  21  23  24  26 0
 3-21G
 ****
 27  28  34  35  38  39  40  41  42  43  44  45  46  47  48 0
 3-21G
 ****


