%nproc=1
%NoSave
%Mem=1900MB
#P OB98/GEN NMR

erre ene a

0 1
  C       60.782     122.293    -121.728
  O       59.821     121.318    -122.082
  H       61.527     121.828    -121.077
  H       60.305     123.110    -121.183
  H       61.288     122.683    -122.615
  P       58.727     121.680    -123.194
  C       56.911     122.431    -121.521
  O       57.290     121.482    -122.513
  C       55.392     122.452    -121.375
  O       54.786     123.000    -122.565
  C       54.768     121.074    -121.183
  O       54.972     120.605    -119.862
  C       53.318     121.368    -121.544
  O       52.632     121.982    -120.440
  C       53.490     122.371    -122.710
  N       53.353     121.750    -124.027
  C       52.125     121.900    -124.659
  O       51.171     122.481    -124.143
  N       52.017     121.332    -125.904
  C       52.975     120.581    -126.526
  O       52.810     120.053    -127.622
  C       54.243     120.432    -125.798
  C       54.374     121.013    -124.602
  O       58.892     121.005    -124.515
  O       58.842     123.273    -123.328
  H       51.710     122.120    -120.731
  H       59.367     123.500    -124.119
  H       51.130     121.419    -126.373
  H       55.020     119.836    -126.257
  H       55.298     120.905    -124.045
  H       52.744     123.175    -122.632
  H       52.757     120.471    -121.804
  H       55.175     120.369    -121.916
  H       55.141     123.114    -120.534
  H       57.263     123.422    -121.831
  H       57.390     122.163    -120.573
  P       55.449     119.104    -119.596
  C       53.009     118.649    -118.961
  O       54.370     118.418    -118.619
  O       56.867     118.955    -119.155
  O       55.197     118.359    -120.990
  H       56.049     118.203    -121.440
  H       52.375     118.154    -118.255
  H       52.818     118.266    -119.942
  H       52.810     119.700    -118.943

 6  7  8  9  10  11  12  13  14  15  16  26  31  32  33  34  35 0
 6-311+G(2d,p)
 ****
 36  37 0
 6-311+G(2d,p)
 ****
 1  2  3  4  5  17  18  19  20  21  22  23  24  25 0
 3-21G
 ****
 27  28  29  30  38  39  40  41  42  43  44  45 0
 3-21G
 ****


