%nproc=1
%NoSave
%Mem=1900MB
#P OB98/GEN NMR

erre ene a

0 1
  C     -519.042     187.070     -77.672
  O     -520.346     187.229     -77.142
  H     -518.971     186.082     -78.142
  H     -518.302     187.133     -76.868
  H     -518.839     187.837     -78.428
  P     -520.728     188.693     -76.618
  C     -520.012     190.092     -74.515
  O     -520.213     188.809     -75.096
  C     -519.276     189.954     -73.183
  O     -518.018     189.270     -73.362
  C     -518.874     191.277     -72.546
  O     -519.977     191.969     -72.002
  C     -517.887     190.798     -71.493
  O     -518.543     190.373     -70.292
  C     -517.213     189.593     -72.200
  N     -515.833     189.875     -72.548
  C     -514.885     189.536     -71.568
  O     -515.251     189.015     -70.509
  N     -513.566     189.828     -71.796
  C     -513.217     190.435     -72.891
  N     -511.893     190.726     -73.045
  C     -514.181     190.810     -73.953
  C     -515.461     190.507     -73.721
  O     -522.317     188.601     -76.461
  O     -520.262     189.816     -77.493
  H     -519.146     189.645     -70.551
  H     -522.618     187.817     -75.970
  H     -513.836     191.300     -74.852
  H     -516.233     190.746     -74.434
  H     -517.230     188.710     -71.552
  H     -517.180     191.589     -71.212
  H     -518.333     191.900     -73.272
  H     -519.903     189.357     -72.505
  H     -511.280     190.498     -72.270
  H     -520.970     190.599     -74.361
  H     -511.522     191.258     -73.815
  H     -519.424     190.691     -75.216
  P     -519.898     193.536     -71.662
  C     -519.061     194.925     -69.657
  O     -519.002     193.670     -70.326
  O     -521.208     194.250     -71.593
  O     -518.902     194.095     -72.791
  H     -518.013     193.696     -72.788
  H     -518.432     194.898     -68.792
  H     -520.069     195.123     -69.359
  H     -518.726     195.697     -70.317

 6  7  8  9  10  11  12  13  14  15  16  26  30  31  32  33  35 0
 6-311+G(2d,p)
 ****
 37  38 0
 6-311+G(2d,p)
 ****
 1  2  3  4  5  17  18  19  20  21  22  23  24  25 0
 3-21G
 ****
 27  28  29  34  36  39  40  41  42  43  44  45  46 0
 3-21G
 ****


