%nproc=1
%NoSave
%Mem=1900MB
#P OB98/GEN NMR

erre ene a

0 1
  C     -745.614     -30.216    -891.360
  O     -746.107     -30.331    -892.670
  H     -745.859     -31.130    -890.810
  H     -746.089     -29.371    -890.850
  H     -744.530     -30.086    -891.360
  P     -745.725     -29.164    -893.710
  C     -745.137     -30.395    -895.920
  O     -744.652     -29.789    -894.730
  C     -744.756     -31.877    -895.950
  O     -745.320     -32.534    -894.790
  C     -745.267     -32.614    -897.190
  O     -744.272     -33.549    -897.610
  C     -746.488     -33.364    -896.690
  O     -746.784     -34.519    -897.480
  C     -746.094     -33.654    -895.240
  N     -747.268     -33.875    -894.400
  C     -747.664     -35.205    -894.210
  O     -747.038     -36.120    -894.750
  N     -748.787     -35.461    -893.470
  C     -749.507     -34.476    -893.040
  N     -750.631     -34.795    -892.330
  C     -749.164     -33.058    -893.260
  C     -748.042     -32.836    -893.940
  O     -744.846     -28.159    -892.830
  O     -746.881     -28.485    -894.360
  H     -745.983     -35.085    -897.500
  H     -744.957     -27.236    -893.120
  H     -749.810     -32.272    -892.900
  H     -747.715     -31.825    -894.170
  H     -745.452     -34.546    -895.190
  H     -747.362     -32.704    -896.720
  H     -745.507     -31.944    -898.020
  H     -743.667     -31.957    -895.870
  H     -750.837     -35.777    -892.210
  H     -744.690     -29.893    -896.780
  H     -751.286     -34.114    -891.980
  H     -746.225     -30.280    -895.970
  P     -743.004     -32.958    -898.390
  C     -740.977     -33.381    -896.830
  O     -741.935     -32.450    -897.310
  O     -743.568     -31.602    -899.040
  O     -742.462     -33.877    -899.440
  H     -743.665     -31.703    -900.000
  H     -740.336     -32.900    -896.121
  H     -740.392     -33.745    -897.649
  H     -741.480     -34.199    -896.359

 6  7  8  9  10  11  12  13  14  15  16  26  30  31  32  33  35 0
 6-311+G(2d,p)
 ****
 37  38 0
 6-311+G(2d,p)
 ****
 1  2  3  4  5  17  18  19  20  21  22  23  24  25 0
 3-21G
 ****
 27  28  29  34  36  39  40  41  42  43  44  45  46 0
 3-21G
 ****


