%nproc=1
%NoSave
%Mem=1900MB
#P OB98/GEN NMR

erre ene a

0 1
  C      -56.045     418.426     106.610
  O      -55.573     417.146     106.210
  P      -54.456     417.100     105.054
  C      -56.150     415.903     103.490
  O      -54.869     415.868     104.110
  C      -56.174     415.010     102.259
  O      -55.172     415.444     101.321
  C      -55.868     413.544     102.533
  O      -57.004     412.844     103.022
  C      -55.481     413.061     101.142
  O      -56.671     412.771     100.383
  C      -54.758     414.282     100.558
  N      -50.636     412.230      98.445
  C      -51.966     412.110      98.091
  N      -52.230     411.356      97.002
  N      -52.944     412.673      98.749
  C      -52.528     413.431      99.788
  C      -51.239     413.627     100.239
  C      -50.169     412.955      99.538
  O      -48.979     412.972      99.841
  N      -51.214     414.476     101.316
  C      -52.470     414.822     101.494
  N      -53.313     414.191     100.611
  O      -53.162     416.561     105.824
  O      -54.197     418.397     104.371
  H      -57.083     413.628     100.158
  H      -52.354     416.856     105.359
  H      -49.920     411.788      97.897
  H      -52.816     415.519     102.246
  H      -55.054     414.463      99.517
  H      -54.883     412.145     101.157
  H      -51.513     411.004      96.388
  H      -55.011     413.441     103.207
  H      -53.196     411.284      96.708
  H      -57.155     415.117     101.778
  H      -56.376     416.934     103.192
  H      -56.902     415.579     104.217
  P      -56.851     412.140     104.458
  C      -56.880     409.704     103.550
  O      -57.545     410.708     104.299
  O      -57.862     412.964     105.377
  O      -55.459     412.146     104.997
  H      -57.581     412.921     106.315
  H      -55.798     409.750     103.694
  H      -57.114     409.827     102.491
  H      -57.234     408.727     103.880
  H      -56.779     418.311     107.380
  H      -56.484     418.923     105.770
  H      -55.227     419.008     106.981

 3  4  5  6  7  8  9  10  11  12  23  26  30  31  33  0
 6-311+G(2d,p)
 ****
 35  36  37  38 0
 6-311+G(2d,p)
 ****
 1  2  13  14  15  16  17  18  19  20  21  22  24  25  27  28  29 0
 3-21G
 ****
 32  34  39  40  41  42  43  44  45  46  47  48  49 0
 3-21G
 ****


