%nproc=1
%NoSave
%Mem=1900MB
#P OB98/GEN NMR

erre ene a

0 1
  C      153.504    -387.791      20.121
  O      153.933    -389.067      20.558
  H      152.834    -387.892      19.264
  H      152.962    -387.307      20.938
  H      154.366    -387.172      19.852
  P      154.781    -389.934      19.508
  C      157.079    -389.571      18.356
  O      155.946    -388.972      18.966
  C      157.264    -389.028      16.944
  O      156.146    -389.404      16.115
  C      157.351    -387.507      16.850
  O      158.646    -387.031      17.186
  C      157.047    -387.297      15.376
  O      158.223    -387.573      14.591
  C      155.977    -388.368      15.114
  N      152.824    -384.621      13.633
  C      154.110    -384.889      13.330
  N      154.878    -385.914      13.746
  C      154.176    -386.735      14.547
  C      152.851    -386.605      14.933
  C      152.162    -385.485      14.444
  N      150.860    -385.183      14.820
  N      152.486    -387.634      15.781
  C      153.576    -388.355      15.919
  N      154.621    -387.856      15.188
  O      153.779    -390.058      18.262
  O      155.221    -391.273      19.998
  H      158.375    -388.536      14.642
  H      153.314    -390.917      18.309
  H      154.593    -384.177      12.662
  H      153.659    -389.240      16.534
  H      156.101    -388.843      14.134
  H      156.735    -386.274      15.144
  H      156.573    -387.024      17.447
  H      158.162    -389.496      16.518
  H      156.938    -390.657      18.310
  H      150.653    -384.188      14.805
  H      150.524    -385.707      15.617
  H      157.961    -389.353      18.967
  P      158.781    -385.497      17.635
  C      158.147    -384.153      19.754
  O      157.942    -385.341      18.997
  O      157.889    -384.729      16.546
  O      160.174    -384.960      17.664
  H      158.430    -384.047      16.102
  H      157.532    -384.177      20.629
  H      157.888    -383.302      19.159
  H      159.175    -384.087      20.042

 6  7  8  9  10  11  12  13  14  15  25  28  32  33  34  35 0
 6-311+G(2d,p)
 ****
 36  39  40 0
 6-311+G(2d,p)
 ****
 1  2  3  4  5  16  17  18  19  20  21  22  23  24 0
 3-21G
 ****
 26  27  29  30  31  37  38  41  42  43  44  45  46  47  48 0
 3-21G
 ****


