%nproc=1
%NoSave
%Mem=1900MB
#P OB98/GEN NMR

erre ene a

0 1
  C      361.318     423.944    -763.803
  O      359.965     424.390    -763.629
  P      359.682     425.946    -763.369
  C      357.687     427.593    -763.469
  O      358.120     426.248    -763.608
  C      356.201     427.710    -763.831
  O      355.956     427.288    -765.204
  C      355.313     426.803    -762.984
  O      355.173     427.140    -761.622
  C      354.049     426.714    -763.818
  O      353.196     427.839    -763.599
  C      354.622     426.745    -765.260
  N      354.615     425.415    -765.898
  C      353.392     425.003    -766.422
  O      352.360     425.663    -766.341
  N      353.396     423.772    -767.032
  C      354.473     422.932    -767.116
  O      354.405     421.826    -767.654
  C      355.723     423.409    -766.512
  C      355.737     424.621    -765.944
  O      360.617     426.900    -764.029
  O      359.809     426.060    -761.764
  H      353.745     428.642    -763.667
  H      360.282     426.893    -761.562
  H      352.528     423.456    -767.419
  H      356.581     422.768    -766.568
  H      356.653     424.994    -765.484
  H      354.026     427.423    -765.896
  H      353.461     425.816    -763.579
  H      355.762     425.796    -762.987
  H      355.904     428.755    -763.754
  H      358.287     428.249    -764.118
  H      357.884     427.927    -762.449
  P      356.212     426.686    -760.493
  C      357.285     427.939    -758.484
  O      356.137     427.730    -759.279
  O      357.570     426.269    -760.942
  O      355.454     425.398    -759.865
  H      356.132     424.759    -759.576
  H      357.044     428.668    -757.698
  H      358.104     428.329    -759.074
  H      357.589     426.999    -758.005
  H      361.327     422.886    -763.965
  H      361.885     424.175    -762.926
  H      361.751     424.438    -764.648

 3  4  5  6  7  8  9  10  11  12  13  23  28  29  30  31  32 0
 6-311+G(2d,p)
 ****
 33  34 0
 6-311+G(2d,p)
 ****
 1  2  14  15  16  17  18  19  20  21  22  24  25  26  27 0
 3-21G
 ****
 35  36  37  38  39  40  41  42  43  44  45 0
 3-21G
 ****


