%nproc=1
%NoSave
%Mem=1900MB
#P OB98/GEN NMR

erre ene a

0 1
  C     -158.091     140.726     271.802
  O     -157.286     141.311     270.781
  P     -156.060     142.248     271.217
  C     -154.022     141.269     269.971
  O     -154.718     141.368     271.210
  C     -152.805     140.336     270.107
  O     -151.896     140.893     271.093
  C     -153.129     138.920     270.595
  O     -153.445     137.927     269.622
  C     -151.797     138.510     271.218
  O     -150.906     138.028     270.193
  C     -151.253     139.811     271.799
  N     -149.688     138.340     276.441
  C     -149.239     138.043     275.201
  N     -149.713     138.476     274.016
  C     -150.749     139.311     274.192
  C     -151.312     139.707     275.397
  C     -150.739     139.181     276.563
  N     -151.199     139.474     277.826
  N     -152.368     140.567     275.179
  C     -152.452     140.671     273.867
  N     -151.489     139.944     273.226
  O     -156.275     143.081     272.435
  O     -155.861     143.176     269.924
  H     -150.045     137.875     270.625
  H     -155.624     144.078     270.215
  H     -148.391     137.366     275.154
  H     -153.191     141.261     273.342
  H     -150.173     139.919     271.643
  H     -151.909     137.697     271.943
  H     -153.907     138.939     271.364
  H     -152.280     140.292     269.145
  H     -153.691     142.260     269.657
  H     -150.760     139.018     278.610
  H     -152.019     140.054     277.933
  H     -154.736     140.921     269.223
  P     -154.329     136.646     269.994
  C     -156.343     137.512     268.563
  O     -155.853     137.111     269.825
  O     -154.014     136.020     271.308
  O     -154.104     135.690     268.731
  H     -154.500     136.013     267.906
  H     -157.431     137.578     268.613
  H     -156.068     136.787     267.792
  H     -155.939     138.496     268.309
  H     -158.861     140.134     271.354
  H     -158.535     141.499     272.393
  H     -157.481     140.106     272.425

 3  4  5  6  7  8  9  10  11  12  22  25  29  30  31  32 0
 6-311+G(2d,p)
 ****
 33  36  37 0
 6-311+G(2d,p)
 ****
 1  2  13  14  15  16  17  18  19  20  21  23  24  26 0
 3-21G
 ****
 27  28  34  35  38  39  40  41  42  43  44  45  46  47  48 0
 3-21G
 ****


