%nproc=1
%NoSave
%Mem=1900MB
#P OB98/GEN NMR

erre ene a

0 1
  C      -38.694    1189.316    -342.581
  O      -37.682    1188.424    -343.040
  H      -38.207    1190.189    -342.144
  H      -39.309    1188.833    -341.830
  H      -39.304    1189.639    -343.415
  P      -38.189    1187.013    -343.619
  C      -39.253    1188.084    -345.757
  O      -38.234    1187.262    -345.211
  C      -38.760    1188.737    -347.048
  O      -37.802    1189.785    -346.763
  C      -38.038    1187.780    -348.000
  O      -38.922    1186.946    -348.732
  C      -37.336    1188.789    -348.893
  O      -38.301    1189.385    -349.791
  C      -36.843    1189.816    -347.858
  N      -35.480    1189.510    -347.355
  C      -34.427    1189.773    -348.241
  O      -34.634    1190.223    -349.357
  N      -33.152    1189.474    -347.830
  C      -32.938    1188.985    -346.655
  N      -31.653    1188.704    -346.308
  C      -34.033    1188.704    -345.685
  C      -35.259    1188.995    -346.104
  O      -39.750    1186.989    -343.229
  O      -37.429    1185.815    -343.186
  H      -38.659    1188.656    -350.346
  H      -40.192    1186.228    -343.675
  H      -33.812    1188.287    -344.718
  H      -36.113    1188.823    -345.452
  H      -36.844    1190.836    -348.272
  H      -36.558    1188.356    -349.519
  H      -37.278    1187.191    -347.481
  H      -39.622    1189.213    -347.533
  H      -30.941    1188.846    -347.006
  H      -39.496    1188.862    -345.011
  H      -31.406    1188.191    -345.473
  H      -40.142    1187.499    -345.965
  P      -38.304    1185.621    -349.388
  C      -38.418    1183.869    -347.444
  O      -39.002    1184.369    -348.674
  O      -36.809    1185.589    -348.818
  O      -38.337    1185.589    -350.887
  H      -36.196    1185.210    -349.488
  H      -38.991    1183.038    -347.089
  H      -38.421    1184.644    -346.707
  H      -37.412    1183.556    -347.628

 6  7  8  9  10  11  12  13  14  15  16  26  30  31  32  33  35 0
 6-311+G(2d,p)
 ****
 37  38 0
 6-311+G(2d,p)
 ****
 1  2  3  4  5  17  18  19  20  21  22  23  24  25 0
 3-21G
 ****
 27  28  29  34  36  39  40  41  42  43  44  45  46 0
 3-21G
 ****


