%nproc=1
%NoSave
%Mem=1900MB
#P OB98/GEN NMR

erre ene a

0 1
  C      357.780      -2.772      -9.023
  O      356.687      -3.484      -9.566
  H      358.438      -2.464      -9.840
  H      358.347      -3.415      -8.345
  H      357.440      -1.879      -8.493
  P      355.476      -3.893      -8.600
  C      356.420      -6.252      -8.134
  O      356.043      -4.996      -7.586
  C      357.349      -7.006      -7.175
  O      358.624      -6.292      -7.110
  C      356.818      -7.116      -5.730
  O      357.341      -8.337      -5.185
  C      357.468      -5.900      -5.094
  O      357.368      -5.905      -3.692
  C      358.870      -6.012      -5.713
  N      359.714      -4.833      -5.567
  C      360.368      -4.654      -4.350
  O      360.287      -5.420      -3.391
  N      361.142      -3.527      -4.253
  C      361.332      -2.595      -5.234
  O      362.064      -1.621      -5.096
  C      360.610      -2.835      -6.491
  C      359.850      -3.926      -6.600
  O      354.199      -4.257      -9.282
  O      355.295      -2.609      -7.658
  H      354.530      -2.085      -7.963
  H      357.880      -6.665      -3.337
  H      361.627      -3.385      -3.384
  H      360.731      -2.110      -7.284
  H      359.311      -4.139      -7.520
  H      359.391      -6.881      -5.300
  H      356.964      -4.993      -5.427
  H      355.729      -7.131      -5.674
  H      357.563      -7.996      -7.594
  H      356.932      -6.074      -9.084
  H      355.517      -6.845      -8.323
  P      356.448      -9.647      -4.927
  C      356.792     -10.335      -2.454
  O      355.978      -9.636      -3.392
  O      357.104     -10.919      -5.347
  O      355.092      -9.398      -5.745
  H      354.696     -10.256      -5.988
  H      356.366     -10.247      -1.477
  H      357.776      -9.915      -2.453
  H      356.845     -11.368      -2.728

 6  7  8  9  10  11  12  13  14  15  16  27  31  32  33  34  35 0
 6-311+G(2d,p)
 ****
 36  37 0
 6-311+G(2d,p)
 ****
 1  2  3  4  5  17  18  19  20  21  22  23  24  25 0
 3-21G
 ****
 26  28  29  30  38  39  40  41  42  43  44  45 0
 3-21G
 ****


