%nproc=1
%NoSave
%Mem=1900MB
#P OB98/GEN NMR

erre ene a

0 1
  C      -45.757     663.682      81.899
  O      -44.758     664.534      81.382
  H      -45.753     663.768      82.991
  H      -45.544     662.641      81.638
  H      -46.743     663.970      81.527
  P      -44.502     664.578      79.797
  C      -44.594     667.142      79.795
  O      -43.798     665.998      79.518
  C      -43.733     668.302      80.308
  O      -43.269     668.009      81.651
  C      -42.497     668.579      79.440
  O      -42.385     669.984      79.191
  C      -41.334     668.127      80.318
  O      -40.103     668.767      79.991
  C      -41.897     668.437      81.711
  N      -41.150     667.753      82.767
  C      -40.134     668.496      83.379
  O      -39.915     669.654      83.023
  N      -39.356     667.893      84.331
  C      -39.541     666.641      84.614
  N      -38.713     666.091      85.544
  C      -40.584     665.810      83.968
  C      -41.342     666.425      83.068
  O      -45.712     664.300      78.964
  O      -43.311     663.536      79.540
  H      -39.768     668.377      79.150
  H      -43.337     663.247      78.601
  H      -40.693     664.776      84.241
  H      -42.137     665.904      82.545
  H      -41.885     669.510      81.909
  H      -41.196     667.048      80.201
  H      -42.506     668.046      78.492
  H      -44.367     669.194      80.389
  H      -38.010     666.698      85.953
  H      -45.353     666.874      80.538
  H      -38.748     665.124      85.830
  H      -45.095     667.448      78.868
  P      -41.946     670.402      77.705
  C      -44.140     671.745      77.336
  O      -42.718     671.759      77.324
  O      -42.631     669.292      76.783
  O      -40.462     670.435      77.514
  H      -41.947     668.709      76.410
  H      -44.509     672.712      77.064
  H      -44.486     671.495      78.317
  H      -44.495     671.018      76.636

 6  7  8  9  10  11  12  13  14  15  16  26  30  31  32  33  35 0
 6-311+G(2d,p)
 ****
 37  38 0
 6-311+G(2d,p)
 ****
 1  2  3  4  5  17  18  19  20  21  22  23  24  25 0
 3-21G
 ****
 27  28  29  34  36  39  40  41  42  43  44  45  46 0
 3-21G
 ****


