%nproc=1
%NoSave
%Mem=1900MB
#P OB98/GEN NMR

erre ene a

0 1
  C        9.292     169.739    -181.368
  O        9.851     169.161    -180.208
  H        9.773     170.705    -181.544
  H        8.219     169.902    -181.237
  H        9.469     169.099    -182.237
  P        9.271     167.761    -179.688
  C        9.288     168.249    -177.154
  O        9.883     167.522    -178.224
  C       10.273     168.364    -175.984
  O       10.575     167.022    -175.528
  C       11.589     169.044    -176.388
  O       11.935     170.139    -175.545
  C       12.572     167.881    -176.474
  O       13.922     168.234    -176.260
  C       12.006     166.875    -175.466
  N       12.394     165.491    -175.730
  C       13.751     165.229    -175.888
  O       14.649     166.062    -175.800
  N       14.072     163.921    -176.153
  C       13.195     162.886    -176.279
  O       13.545     161.736    -176.511
  C       11.774     163.231    -176.124
  C       11.443     164.498    -175.863
  O        9.423     166.611    -180.624
  O        7.729     168.070    -179.385
  H       14.477     167.491    -176.576
  H        7.178     167.719    -180.109
  H       15.054     163.718    -176.258
  H       11.050     162.436    -176.228
  H       10.404     164.788    -175.739
  H       12.329     167.122    -174.455
  H       12.508     167.453    -177.481
  H       11.501     169.507    -177.378
  H        9.781     168.890    -175.160
  H        8.389     167.712    -176.841
  H        9.007     169.249    -177.501
  P       11.432     171.640    -175.751
  C       13.550     172.394    -174.402
  O       12.166     172.565    -174.672
  O        9.958     171.811    -175.897
  O       12.113     172.069    -177.149
  H       11.492     172.689    -177.582
  H       13.858     173.098    -173.658
  H       14.111     172.555    -175.299
  H       13.724     171.400    -174.046

 6  7  8  9  10  11  12  13  14  15  16  26  31  32  33  34  35 0
 6-311+G(2d,p)
 ****
 36  37 0
 6-311+G(2d,p)
 ****
 1  2  3  4  5  17  18  19  20  21  22  23  24  25 0
 3-21G
 ****
 27  28  29  30  38  39  40  41  42  43  44  45 0
 3-21G
 ****


