%nproc=1
%NoSave
%Mem=1900MB
#P OB98/GEN NMR

erre ene a

0 1
  C      -14.765    -414.544    -761.079
  O      -13.581    -413.831    -760.816
  P      -13.045    -413.635    -759.314
  C      -12.682    -411.075    -759.425
  O      -12.061    -412.369    -759.360
  C      -11.690    -409.989    -758.971
  O      -11.475    -410.052    -757.564
  C      -10.317    -410.091    -759.623
  O      -10.351    -409.628    -760.968
  C       -9.477    -409.245    -758.673
  O       -9.603    -407.847    -758.977
  C      -10.138    -409.572    -757.300
  N       -9.359    -410.511    -756.532
  C       -8.167    -410.018    -755.956
  O       -7.834    -408.842    -756.157
  N       -7.374    -410.863    -755.202
  C       -7.730    -412.103    -755.073
  N       -6.910    -412.908    -754.327
  C       -8.953    -412.689    -755.668
  C       -9.701    -411.840    -756.383
  O      -12.481    -414.861    -758.666
  O      -14.333    -413.046    -758.542
  H       -9.003    -407.383    -758.341
  H      -15.010    -413.764    -758.384
  H       -9.206    -413.721    -755.536
  H      -10.636    -412.178    -756.864
  H      -10.251    -408.636    -756.705
  H       -8.419    -409.518    -758.718
  H       -9.979    -411.139    -759.591
  H      -12.151    -409.010    -759.218
  H       -6.065    -412.476    -753.967
  H      -13.527    -411.091    -758.745
  H       -7.066    -413.897    -754.187
  H      -13.042    -410.911    -760.438
  P       -9.890    -410.593    -762.158
  C       -8.302    -408.909    -763.275
  O       -9.507    -409.674    -763.409
  O      -10.840    -411.707    -762.476
  O       -8.470    -411.168    -761.671
  H       -8.438    -412.111    -761.849
  H       -7.986    -408.586    -764.277
  H       -7.516    -409.487    -762.800
  H       -8.518    -408.002    -762.670
  H      -14.945    -414.560    -762.134
  H      -15.585    -414.068    -760.584
  H      -14.665    -415.547    -760.719

 3  4  5  6  7  8  9  10  11  12  13  23  27  28  29  30  32 0
 6-311+G(2d,p)
 ****
 34  35 0
 6-311+G(2d,p)
 ****
 1  2  14  15  16  17  18  19  20  21  22  24  25  26 0
 3-21G
 ****
 31  33  36  37  38  39  40  41  42  43  44  45  46 0
 3-21G
 ****


