%nproc=1
%NoSave
%Mem=1900MB
#P OB98/GEN NMR

erre ene a

0 1
  C      -50.592      36.300    -136.838
  O      -51.999      36.199    -136.777
  H      -50.330      37.159    -137.463
  H      -50.167      35.400    -137.289
  H      -50.169      36.451    -135.842
  P      -52.655      35.099    -135.814
  C      -52.139      36.356    -133.625
  O      -51.890      35.196    -134.409
  C      -52.730      35.953    -132.276
  O      -51.880      34.982    -131.627
  C      -52.863      37.111    -131.291
  O      -53.960      37.935    -131.629
  C      -53.000      36.348    -129.983
  O      -54.338      35.851    -129.814
  C      -52.011      35.178    -130.201
  N      -50.708      35.414    -129.578
  C      -50.705      35.551    -128.194
  O      -51.722      35.486    -127.506
  N      -49.487      35.813    -127.624
  C      -48.321      36.036    -128.300
  O      -47.309      36.481    -127.771
  C      -48.371      35.804    -129.751
  C      -49.546      35.524    -130.318
  O      -52.763      33.723    -136.381
  O      -54.098      35.708    -135.476
  H      -54.772      35.266    -136.028
  H      -54.934      36.616    -129.935
  H      -49.481      35.960    -126.626
  H      -47.452      35.908    -130.316
  H      -49.611      35.379    -131.390
  H      -52.422      34.247    -129.788
  H      -52.777      36.969    -129.114
  H      -51.933      37.691    -131.266
  H      -53.705      35.483    -132.456
  H      -52.854      36.990    -134.160
  H      -51.203      36.908    -133.492
  P      -53.902      39.519    -131.417
  C      -53.940      39.882    -133.953
  O      -53.269      40.173    -132.735
  O      -53.271      39.963    -130.140
  O      -55.435      39.982    -131.487
  H      -55.646      40.506    -130.689
  H      -53.435      40.366    -134.763
  H      -54.948      40.236    -133.898
  H      -53.942      38.824    -134.115

 6  7  8  9  10  11  12  13  14  15  16  27  31  32  33  34  35 0
 6-311+G(2d,p)
 ****
 36  37 0
 6-311+G(2d,p)
 ****
 1  2  3  4  5  17  18  19  20  21  22  23  24  25 0
 3-21G
 ****
 26  28  29  30  38  39  40  41  42  43  44  45 0
 3-21G
 ****


