%nproc=1
%NoSave
%Mem=1900MB
#P OB98/GEN NMR

erre ene a

0 1
  C     -212.930      96.761     -92.030
  O     -212.982      97.455     -90.775
  P     -212.279      98.901     -90.737
  C     -209.850      99.829     -90.783
  O     -210.686      98.678     -90.792
  C     -208.410      99.490     -91.178
  O     -207.861      98.550     -90.223
  C     -208.255      98.859     -92.564
  O     -207.044      99.350     -93.162
  C     -208.047      97.388     -92.262
  O     -207.383      96.705     -93.322
  C     -207.253      97.482     -90.964
  N     -204.499      93.510     -89.457
  C     -204.111      94.648     -90.139
  N     -202.808      94.723     -90.490
  N     -204.922      95.623     -90.453
  C     -206.192      95.423     -90.007
  C     -206.699      94.349     -89.315
  C     -205.795      93.258     -89.015
  O     -206.091      92.201     -88.460
  N     -208.037      94.513     -89.042
  C     -208.341      95.680     -89.578
  N     -207.253      96.269     -90.182
  O     -212.551      99.398     -89.238
  O     -212.824      99.863     -91.738
  H     -206.578      97.218     -93.532
  H     -213.008     100.258     -89.253
  H     -203.838      92.778     -89.260
  H     -209.321      96.131     -89.578
  H     -206.207      97.761     -91.155
  H     -209.023      96.908     -92.104
  H     -202.115      94.038     -90.227
  H     -209.096      99.036     -93.244
  H     -202.493      95.568     -90.952
  H     -207.812     100.409     -91.107
  H     -209.856     100.273     -89.782
  H     -210.270     100.567     -91.474
  P     -207.203     100.461     -94.308
  C     -207.380     100.350     -96.900
  O     -207.422      99.650     -95.672
  O     -205.729     101.062     -94.453
  O     -208.219     101.511     -93.998
  H     -205.767     101.980     -94.778
  H     -206.999     101.367     -96.785
  H     -208.388     100.394     -97.320
  H     -206.732      99.807     -97.597
  H     -213.426      95.817     -91.937
  H     -211.909      96.601     -92.307
  H     -213.416      97.347     -92.782

 3  4  5  6  7  8  9  10  11  12  23  26  30  31  33  0
 6-311+G(2d,p)
 ****
 35  36  37  38 0
 6-311+G(2d,p)
 ****
 1  2  13  14  15  16  17  18  19  20  21  22  24  25  27  28  29 0
 3-21G
 ****
 32  34  39  40  41  42  43  44  45  46  47  48  49 0
 3-21G
 ****


