%nproc=1
%NoSave
%Mem=1900MB
#P OB98/GEN NMR

erre ene a

0 1
  C      148.025    -182.236    -160.971
  O      149.123    -181.340    -161.013
  H      147.118    -181.668    -160.746
  H      148.185    -182.974    -160.183
  H      147.899    -182.738    -161.936
  P      150.486    -181.895    -161.651
  C      150.653    -184.001    -160.137
  O      151.216    -182.746    -160.497
  C      150.422    -184.065    -158.629
  O      149.704    -185.273    -158.279
  C      151.703    -184.069    -157.799
  O      152.194    -182.749    -157.589
  C      151.190    -184.668    -156.494
  O      150.461    -183.666    -155.748
  C      150.221    -185.747    -157.001
  N      152.199    -189.812    -154.691
  C      151.746    -188.615    -154.156
  N      151.837    -188.492    -152.811
  N      151.246    -187.637    -154.868
  C      151.236    -187.903    -156.203
  C      151.667    -189.039    -156.851
  C      152.198    -190.120    -156.048
  O      152.597    -191.201    -156.476
  N      151.497    -188.938    -158.203
  C      150.986    -187.732    -158.380
  N      150.817    -187.058    -157.193
  O      151.384    -180.574    -161.770
  O      150.344    -182.578    -162.969
  H      150.275    -184.043    -154.868
  H      151.384    -180.275    -162.700
  H      152.583    -190.529    -154.098
  H      150.722    -187.304    -159.337
  H      149.363    -185.880    -156.333
  H      151.994    -185.024    -155.848
  H      152.230    -189.195    -152.207
  H      152.474    -184.727    -158.225
  H      151.509    -187.622    -152.398
  H      149.781    -183.218    -158.351
  H      151.344    -184.796    -160.435
  H      149.705    -184.128    -160.666
  P      153.510    -182.298    -158.398
  C      155.179    -183.579    -156.889
  O      154.734    -182.320    -157.354
  O      153.253    -180.735    -158.642
  O      153.748    -183.015    -159.686
  H      153.101    -180.568    -159.592
  H      155.991    -183.440    -156.207
  H      155.507    -184.170    -157.718
  H      154.375    -184.079    -156.390

 6  7  8  9  10  11  12  13  14  15  26  29  33  34 0
 6-311+G(2d,p)
 ****
 36  38  39  40  41 0
 6-311+G(2d,p)
 ****
 1  2  3  4  5  16  17  18  19  20  21  22  23  24  25 0
 3-21G
 ****
 27  28  30  31  32  35  37  42  43  44  45  46  47 0
 3-21G
 ****
 48  49 0
 3-21G
 ****


