%nproc=1
%NoSave
%Mem=1900MB
#P OB98/GEN NMR

erre ene a

0 1
  C     -503.531    -749.204    -654.873
  O     -503.962    -747.862    -654.773
  H     -504.011    -749.664    -655.739
  H     -503.818    -749.762    -653.977
  H     -502.444    -749.248    -655.005
  P     -503.384    -747.017    -653.534
  C     -504.145    -744.922    -654.857
  O     -504.101    -745.583    -653.598
  C     -504.699    -743.505    -654.693
  O     -503.937    -742.773    -653.706
  C     -504.680    -742.676    -655.968
  O     -505.803    -742.961    -656.784
  C     -504.706    -741.264    -655.404
  O     -506.042    -740.869    -655.033
  C     -503.816    -741.397    -654.161
  N     -500.652    -737.831    -655.844
  C     -502.022    -737.802    -655.682
  N     -502.646    -736.681    -656.086
  N     -502.720    -738.796    -655.191
  C     -501.958    -739.873    -654.871
  C     -500.592    -740.018    -654.960
  C     -499.839    -738.902    -655.481
  O     -498.613    -738.837    -655.588
  N     -500.193    -741.248    -654.515
  C     -501.318    -741.861    -654.189
  N     -502.417    -741.069    -654.397
  O     -501.878    -746.693    -653.976
  O     -503.434    -747.706    -652.213
  H     -506.030    -739.944    -654.731
  H     -501.320    -746.637    -653.177
  H     -500.173    -737.031    -656.217
  H     -501.377    -742.867    -653.796
  H     -504.151    -740.757    -653.340
  H     -504.349    -740.528    -656.130
  H     -502.239    -736.051    -656.757
  H     -503.735    -742.831    -656.523
  H     -503.658    -736.661    -655.989
  H     -505.723    -743.596    -654.305
  H     -504.802    -745.487    -655.534
  H     -503.141    -744.888    -655.282
  P     -505.540    -743.328    -658.319
  C     -507.525    -745.005    -658.279
  O     -506.929    -743.878    -658.906
  O     -504.632    -744.642    -658.234
  O     -504.885    -742.244    -659.119
  H     -504.186    -744.801    -659.091
  H     -508.438    -745.250    -658.780
  H     -507.731    -744.776    -657.254
  H     -506.855    -745.838    -658.331

 6  7  8  9  10  11  12  13  14  15  26  29  33  34 0
 6-311+G(2d,p)
 ****
 36  38  39  40  41 0
 6-311+G(2d,p)
 ****
 1  2  3  4  5  16  17  18  19  20  21  22  23  24  25 0
 3-21G
 ****
 27  28  30  31  32  35  37  42  43  44  45  46  47 0
 3-21G
 ****
 48  49 0
 3-21G
 ****


