%nproc=1
%NoSave
%Mem=1900MB
#P OB98/GEN NMR

erre ene a

0 1
  C     -600.826     533.871     488.212
  O     -600.979     535.171     488.747
  H     -600.687     533.163     489.032
  H     -599.944     533.820     487.566
  H     -601.714     533.587     487.642
  P     -601.034     536.412     487.729
  C     -601.880     538.844     487.979
  O     -601.983     537.495     488.428
  C     -603.221     539.552     488.130
  O     -604.224     538.899     487.327
  C     -603.757     539.535     489.554
  O     -603.069     540.474     490.365
  C     -605.226     539.827     489.315
  O     -605.445     541.225     489.107
  C     -605.486     539.033     488.016
  N     -606.082     537.724     488.264
  C     -607.383     537.729     488.784
  O     -607.966     538.791     488.994
  N     -607.977     536.521     489.067
  C     -607.344     535.419     488.838
  N     -607.998     534.256     489.139
  C     -605.981     535.364     488.280
  C     -605.413     536.539     488.027
  O     -601.386     536.105     486.311
  O     -599.578     537.068     487.858
  H     -604.983     541.680     489.834
  H     -598.962     536.670     487.219
  H     -605.494     534.417     488.107
  H     -604.413     536.596     487.616
  H     -606.158     539.583     487.345
  H     -605.835     539.506     490.155
  H     -603.678     538.527     489.973
  H     -603.105     540.587     487.766
  H     -608.923     534.340     489.528
  H     -601.578     538.818     486.926
  H     -607.634     533.338     488.929
  H     -601.106     539.376     488.542
  P     -603.324     540.517     491.950
  C     -602.146     541.686     493.922
  O     -602.038     541.261     492.562
  O     -603.675     539.212     492.579
  O     -604.472     541.622     492.094
  H     -605.354     541.269     491.805
  H     -601.237     542.165     494.219
  H     -602.323     540.837     494.548
  H     -602.960     542.374     494.017

 6  7  8  9  10  11  12  13  14  15  16  26  30  31  32  33  35 0
 6-311+G(2d,p)
 ****
 37  38 0
 6-311+G(2d,p)
 ****
 1  2  3  4  5  17  18  19  20  21  22  23  24  25 0
 3-21G
 ****
 27  28  29  34  36  39  40  41  42  43  44  45  46 0
 3-21G
 ****


