%nproc=1
%NoSave
%Mem=1900MB
#P OB98/GEN NMR

erre ene a

0 1
  C     -187.705    -157.513     480.758
  O     -186.640    -156.635     481.142
  P     -185.543    -156.280     480.024
  C     -183.501    -157.567     481.039
  O     -184.494    -157.499     480.024
  C     -182.366    -158.512     480.626
  O     -181.820    -158.085     479.334
  C     -181.196    -158.577     481.626
  O     -180.736    -159.938     481.628
  C     -180.158    -157.664     480.997
  O     -178.844    -157.959     481.468
  C     -180.395    -157.957     479.505
  N     -179.841    -156.924     478.631
  C     -178.476    -156.984     478.363
  O     -177.733    -157.814     478.874
  N     -177.997    -156.027     477.510
  C     -178.705    -154.998     476.974
  O     -178.220    -154.171     476.215
  C     -180.121    -154.915     477.391
  C     -180.608    -155.862     478.181
  O     -184.754    -155.076     480.723
  O     -186.150    -155.953     478.695
  H     -184.655    -155.184     481.686
  H     -178.215    -157.302     481.090
  H     -177.013    -156.078     477.264
  H     -180.706    -154.076     477.025
  H     -181.644    -155.822     478.518
  H     -179.941    -158.918     479.223
  H     -180.384    -156.625     481.226
  H     -181.488    -158.277     482.637
  H     -182.796    -159.512     480.485
  H     -183.944    -157.940     481.973
  H     -183.119    -156.552     481.245
  P     -181.348    -160.941     482.732
  C     -179.615    -160.319     484.606
  O     -180.959    -160.347     484.167
  O     -180.330    -162.180     482.575
  O     -182.772    -161.330     482.519
  H     -179.404    -161.908     482.555
  H     -179.539    -159.676     485.481
  H     -178.961    -159.924     483.820
  H     -179.284    -161.332     484.876
  H     -188.360    -157.665     481.591
  H     -187.298    -158.453     480.448
  H     -188.252    -157.077     479.949

 3  4  5  6  7  8  9  10  11  12  13  24  28  29  30  31  32 0
 6-311+G(2d,p)
 ****
 33  34 0
 6-311+G(2d,p)
 ****
 1  2  14  15  16  17  18  19  20  21  22  23  25  26  27 0
 3-21G
 ****
 35  36  37  38  39  40  41  42  43  44  45 0
 3-21G
 ****


