%nproc=1
%NoSave
%Mem=1900MB
#P OB98/GEN NMR

erre ene a

0 1
  C      204.511    -430.746     -81.028
  O      204.810    -431.594     -82.148
  P      203.946    -431.612     -83.500
  C      201.708    -432.564     -84.354
  O      202.544    -432.346     -83.225
  C      200.721    -433.716     -84.118
  O      201.447    -434.967     -83.909
  C      199.789    -433.519     -82.901
  O      198.514    -434.031     -83.276
  C      200.464    -434.393     -81.850
  O      199.610    -434.738     -80.770
  C      200.883    -435.576     -82.728
  N      201.834    -436.501     -82.117
  C      201.324    -437.497     -81.275
  O      200.128    -437.561     -81.007
  N      202.201    -438.407     -80.729
  C      203.467    -438.322     -80.991
  N      204.279    -439.260     -80.421
  C      204.049    -437.283     -81.853
  C      203.185    -436.420     -82.382
  O      204.686    -432.159     -84.676
  O      203.531    -430.083     -83.756
  H      203.532    -429.914     -84.722
  H      198.922    -435.344     -81.118
  H      205.111    -437.261     -82.052
  H      203.533    -435.638     -83.051
  H      199.991    -436.131     -83.049
  H      201.323    -433.857     -81.442
  H      199.678    -432.472     -82.607
  H      200.130    -433.849     -85.029
  H      203.841    -439.968     -79.838
  H      202.340    -432.814     -85.215
  H      205.280    -439.296     -80.564
  H      201.170    -431.638     -84.583
  P      197.181    -433.360     -82.690
  C      195.389    -434.000     -80.908
  O      196.562    -434.365     -81.602
  O      196.151    -433.527     -83.909
  O      197.282    -431.919     -82.298
  H      195.469    -432.837     -83.851
  H      194.716    -434.861     -80.878
  H      194.868    -433.163     -81.376
  H      195.654    -433.726     -79.878
  H      205.227    -430.916     -80.251
  H      203.530    -430.969     -80.664
  H      204.554    -429.722     -81.335

 3  4  5  6  7  8  9  10  11  12  13  24  27  28  29  30  32 0
 6-311+G(2d,p)
 ****
 34  35 0
 6-311+G(2d,p)
 ****
 1  2  14  15  16  17  18  19  20  21  22  23  25  26 0
 3-21G
 ****
 31  33  36  37  38  39  40  41  42  43  44  45  46 0
 3-21G
 ****


