%nproc=1
%NoSave
%Mem=1900MB
#P OB98/GEN NMR

erre ene a

0 1
  C      604.449    -578.122     983.819
  O      605.364    -578.653     982.885
  H      604.137    -578.914     984.508
  H      603.561    -577.744     983.302
  H      604.908    -577.313     984.401
  P      606.126    -577.607     981.933
  C      604.951    -578.733     979.907
  O      605.268    -577.523     980.573
  C      604.514    -578.439     978.467
  O      603.328    -577.596     978.504
  C      605.577    -577.689     977.635
  O      605.501    -578.171     976.292
  C      605.097    -576.248     977.685
  O      605.569    -575.451     976.604
  C      603.577    -576.448     977.666
  N      602.843    -575.278     978.144
  C      602.386    -574.384     977.198
  O      602.478    -574.540     975.964
  N      601.795    -573.245     977.683
  C      601.644    -572.913     979.004
  O      601.137    -571.874     979.383
  C      602.165    -573.898     979.972
  C      602.737    -575.020     979.499
  O      607.437    -578.418     981.500
  O      606.446    -576.284     982.549
  H      608.164    -578.260     982.131
  H      605.159    -575.796     975.787
  H      601.454    -572.591     977.001
  H      602.086    -573.671     981.019
  H      603.149    -575.758     980.189
  H      603.237    -576.701     976.650
  H      605.412    -575.783     978.623
  H      606.596    -577.799     978.022
  H      604.234    -579.373     977.987
  H      604.118    -579.239     980.436
  H      605.823    -579.399     979.914
  P      606.701    -579.113     975.788
  C      607.526    -577.279     974.098
  O      607.821    -578.133     975.211
  O      606.037    -579.783     974.475
  O      607.144    -580.097     976.830
  H      605.455    -579.165     974.003
  H      608.392    -576.699     973.854
  H      606.719    -576.625     974.354
  H      607.247    -577.876     973.255

 6  7  8  9  10  11  12  13  14  15  16  27  31  32  33  34  35 0
 6-311+G(2d,p)
 ****
 36  37 0
 6-311+G(2d,p)
 ****
 1  2  3  4  5  17  18  19  20  21  22  23  24  25 0
 3-21G
 ****
 26  28  29  30  38  39  40  41  42  43  44  45 0
 3-21G
 ****


