%nproc=1
%NoSave
%Mem=1900MB
#P OB98/GEN NMR

erre ene a

0 1
  C     -363.815     174.324       4.062
  O     -363.301     175.534       4.583
  H     -364.801     174.514       3.638
  H     -363.903     173.581       4.855
  H     -363.159     173.946       3.272
  P     -361.832     175.470       5.236
  C     -360.206     175.034       3.246
  O     -360.817     175.996       4.112
  C     -359.905     175.682       1.899
  O     -361.135     175.880       1.159
  C     -359.263     177.072       2.005
  O     -357.876     176.996       2.307
  C     -359.568     177.626       0.623
  O     -358.607     177.191      -0.352
  C     -360.943     177.038       0.306
  N     -364.526     179.818      -2.037
  C     -363.654     178.891      -2.498
  N     -362.743     178.184      -1.809
  C     -362.792     178.501      -0.495
  C     -363.634     179.416       0.119
  C     -364.528     180.100      -0.718
  N     -365.405     181.060      -0.248
  N     -363.360     179.486       1.478
  C     -362.382     178.623       1.676
  N     -362.021     177.991       0.516
  O     -361.541     173.900       5.314
  O     -361.704     176.130       6.570
  H     -357.749     177.570      -0.061
  H     -361.708     173.582       6.223
  H     -363.703     178.691      -3.575
  H     -361.909     178.418       2.630
  H     -361.013     176.685      -0.730
  H     -359.553     178.719       0.635
  H     -359.796     177.664       2.754
  H     -359.269     174.994       1.308
  H     -360.892     174.186       3.095
  H     -359.284     174.673       3.714
  H     -365.964     181.557      -0.908
  H     -365.332     181.356       0.720
  P     -357.105     178.380       2.509
  C     -357.096     178.354       5.125
  O     -356.343     178.296       3.920
  O     -358.266     179.448       2.780
  O     -356.229     178.787       1.362
  H     -358.029     180.310       2.382
  H     -356.434     178.285       5.963
  H     -357.791     177.541       5.151
  H     -357.630     179.280       5.168

 6  7  8  9  10  11  12  13  14  15  25  28  32  33  34  35 0
 6-311+G(2d,p)
 ****
 36  37  40 0
 6-311+G(2d,p)
 ****
 1  2  3  4  5  16  17  18  19  20  21  22  23  24 0
 3-21G
 ****
 26  27  29  30  31  38  39 41  42  43  44  45  46  47  48 0
 3-21G
 ****


