%nproc=1
%NoSave
%Mem=1900MB
#P OB98/GEN NMR

erre ene a

0 1
  C     1019.784     559.294     619.018
  O     1020.439     558.054     618.729
  P     1021.042     557.224     619.957
  C     1022.961     558.865     620.576
  O     1022.606     557.599     620.014
  C     1024.256     558.745     621.374
  O     1024.150     557.677     622.332
  C     1025.489     558.400     620.515
  O     1026.030     559.538     619.866
  C     1026.449     557.866     621.589
  O     1027.089     558.976     622.236
  C     1025.488     557.155     622.570
  N     1028.057     552.819     623.078
  C     1028.442     554.105     623.392
  N     1029.668     554.275     623.936
  N     1027.675     555.151     623.173
  C     1026.463     554.838     622.659
  C     1025.990     553.598     622.290
  C     1026.861     552.453     622.499
  O     1026.596     551.308     622.171
  N     1024.706     553.685     621.828
  C     1024.386     554.971     621.919
  N     1025.450     555.709     622.393
  O     1021.038     555.727     619.411
  O     1020.295     557.346     621.245
  H     1027.577     559.468     621.544
  H     1021.004     555.086     620.169
  H     1028.676     552.044     623.288
  H     1023.427     555.389     621.669
  H     1025.758     557.372     623.603
  H     1027.231     557.234     621.180
  H     1030.231     553.496     624.235
  H     1025.265     557.584     619.807
  H     1029.933     555.212     624.206
  H     1024.421     559.684     621.908
  H     1022.167     559.193     621.259
  H     1023.068     559.594     619.784
  P     1025.832     559.592     618.256
  C     1028.071     558.315     617.978
  O     1027.309     559.470     617.675
  O     1025.434     561.128     618.007
  O     1024.815     558.636     617.731
  H     1024.932     561.204     617.194
  H     1027.447     557.411     618.004
  H     1028.587     558.439     618.927
  H     1028.824     558.168     617.188
  H     1019.435     559.734     618.107
  H     1020.474     559.959     619.493
  H     1018.954     559.116     619.669

 3  4  5  6  7  8  9  10  11  12  23  26  30  31  33  0
 6-311+G(2d,p)
 ****
 35  36  37  38 0
 6-311+G(2d,p)
 ****
 1  2  13  14  15  16  17  18  19  20  21  22  24  25  27  28  29 0
 3-21G
 ****
 32  34  39  40  41  42  43  44  45  46  47  48  49 0
 3-21G
 ****


