%nproc=1
%NoSave
%Mem=1900MB
#P OB98/GEN NMR

erre ene a

0 1
  C      190.150    -475.843    -184.998
  O      190.123    -476.492    -186.280
  P      191.504    -476.738    -187.066
  C      192.256    -478.252    -189.065
  O      191.197    -477.582    -188.395
  C      191.700    -479.117    -190.201
  O      191.084    -480.316    -189.663
  C      190.610    -478.450    -191.028
  O      191.142    -477.505    -191.943
  C      189.964    -479.652    -191.702
  O      190.707    -480.046    -192.870
  C      190.067    -480.728    -190.604
  N      188.795    -480.975    -189.931
  C      188.275    -482.262    -190.041
  O      188.810    -483.147    -190.705
  N      187.098    -482.488    -189.381
  C      186.367    -481.555    -188.695
  O      185.311    -481.819    -188.142
  C      186.924    -480.194    -188.682
  C      188.091    -479.968    -189.296
  O      192.225    -477.831    -186.138
  O      192.375    -475.534    -187.240
  H      190.240    -480.811    -193.256
  H      193.191    -477.747    -186.229
  H      186.721    -483.421    -189.418
  H      186.364    -479.422    -188.172
  H      188.514    -478.969    -189.298
  H      190.424    -481.675    -191.032
  H      188.937    -479.451    -192.030
  H      189.878    -477.976    -190.367
  H      192.540    -479.421    -190.843
  H      192.787    -478.887    -188.352
  H      192.953    -477.504    -189.461
  P      190.599    -475.999    -191.824
  C      191.798    -473.941    -192.904
  O      191.229    -475.221    -193.074
  O      191.423    -475.476    -190.551
  O      189.113    -475.920    -191.675
  H      192.310    -475.874    -190.500
  H      192.268    -473.840    -191.921
  H      191.022    -473.178    -193.018
  H      192.563    -473.789    -193.679
  H      189.153    -475.760    -184.619
  H      190.574    -474.866    -185.102
  H      190.743    -476.419    -184.319

 3  4  5  6  7  8  9  10  11  12  13  23  28  29  30  31  32 0
 6-311+G(2d,p)
 ****
 33  34 0
 6-311+G(2d,p)
 ****
 1  2  14  15  16  17  18  19  20  21  22  24  25  26 0
 3-21G
 ****
 27  35  36  37  38  39  40  41  42  43  44  45 0
 3-21G
 ****


