%nproc=1
%NoSave
%Mem=1900MB
#P OB98/GEN NMR

erre ene a

0 1
  C     -229.704     -28.107    -127.332
  O     -230.475     -29.309    -127.284
  P     -230.374     -30.259    -128.576
  C     -232.428     -29.434    -129.926
  O     -231.013     -29.460    -129.814
  C     -232.863     -28.861    -131.279
  O     -234.307     -28.992    -131.453
  C     -232.522     -27.373    -131.456
  O     -232.199     -27.187    -132.840
  C     -233.842     -26.701    -131.114
  O     -233.913     -25.353    -131.548
  C     -234.809     -27.676    -131.775
  N     -239.612     -26.947    -133.329
  C     -238.448     -27.045    -134.008
  N     -237.204     -27.235    -133.519
  C     -237.236     -27.335    -132.179
  C     -238.344     -27.254    -131.350
  C     -239.583     -27.050    -131.979
  N     -240.772     -26.928    -131.296
  N     -237.968     -27.380    -130.020
  C     -236.651     -27.461    -130.058
  N     -236.175     -27.521    -131.336
  O     -231.438     -31.415    -128.273
  O     -229.002     -30.795    -128.817
  H     -234.652     -24.899    -131.094
  H     -230.988     -32.211    -127.935
  H     -238.525     -26.952    -135.089
  H     -236.000     -27.479    -129.195
  H     -234.807     -27.581    -132.869
  H     -233.977     -26.703    -130.024
  H     -231.680     -27.040    -130.843
  H     -232.386     -29.451    -132.072
  H     -232.856     -28.826    -129.125
  H     -241.610     -26.777    -131.836
  H     -240.792     -26.987    -130.289
  H     -232.816     -30.448    -129.783
  P     -230.670     -27.327    -133.305
  C     -229.790     -25.610    -131.615
  O     -229.817     -26.973    -131.991
  O     -230.498     -25.981    -134.160
  O     -230.315     -28.573    -134.043
  H     -230.814     -25.207    -133.665
  H     -229.248     -25.517    -130.668
  H     -230.806     -25.232    -131.480
  H     -229.269     -25.022    -132.378
  H     -229.846     -27.556    -126.426
  H     -230.020     -27.513    -128.164
  H     -228.668     -28.352    -127.442

 3  4  5  6  7  8  9  10  11  12  22  25  29  30  31  32 0
 6-311+G(2d,p)
 ****
 33  36  37 0
 6-311+G(2d,p)
 ****
 1  2  13  14  15  16  17  18  19  20  21  23  24  26 0
 3-21G
 ****
 27  28  34  35  38  39  40  41  42  43  44  45  46  47  48 0
 3-21G
 ****


