%nproc=1
%NoSave
%Mem=1900MB
#P OB98/GEN NMR

erre ene a

0 1
  C        7.468     -14.685    -117.621
  O        7.006     -15.956    -117.222
  H        6.610     -14.012    -117.705
  H        7.950     -14.761    -118.599
  H        8.172     -14.268    -116.896
  P        8.049     -16.990    -116.589
  C        7.773     -18.989    -114.981
  O        7.367     -17.664    -115.302
  C        7.810     -19.218    -113.471
  O        8.863     -18.423    -112.884
  C        6.508     -18.804    -112.781
  O        5.514     -19.814    -112.748
  C        6.991     -18.464    -111.373
  O        6.996     -19.626    -110.528
  C        8.420     -17.960    -111.601
  N        7.318     -13.689    -109.015
  C        6.836     -14.970    -108.819
  N        5.922     -15.113    -107.836
  N        7.210     -15.997    -109.536
  C        8.052     -15.678    -110.544
  C        8.582     -14.445    -110.849
  C        8.221     -13.326    -110.004
  O        8.632     -12.178    -110.126
  N        9.372     -14.498    -111.972
  C        9.247     -15.741    -112.391
  N        8.523     -16.514    -111.515
  O        9.162     -16.040    -115.931
  O        8.678     -17.945    -117.557
  H        6.971     -19.324    -109.599
  H       10.029     -16.482    -115.963
  H        7.016     -12.945    -108.414
  H        9.695     -16.144    -113.292
  H        9.112     -18.373    -110.857
  H        6.329     -17.734    -110.901
  H        5.536     -14.345    -107.312
  H        6.104     -17.894    -113.232
  H        5.405     -15.993    -107.784
  H        8.054     -20.270    -113.270
  H        8.770     -19.119    -115.404
  H        7.113     -19.716    -115.463
  P        4.062     -19.517    -112.151
  C        1.781     -20.812    -112.035
  O        3.111     -20.749    -112.500
  O        3.515     -18.349    -113.098
  O        4.026     -19.132    -110.709
  H        3.630     -17.479    -112.673
  H        1.324     -21.715    -112.382
  H        1.233     -19.971    -112.405
  H        1.776     -20.798    -110.965

 6  7  8  9  10  11  12  13  14  15  26  29  33  34 0
 6-311+G(2d,p)
 ****
 36  38  39  40  41 0
 6-311+G(2d,p)
 ****
 1  2  3  4  5  16  17  18  19  20  21  22  23  24  25 0
 3-21G
 ****
 27  28  30  31  32  35  37  42  43  44  45  46  47 0
 3-21G
 ****
 48  49 0
 3-21G
 ****


