%nproc=1
%NoSave
%Mem=1900MB
#P OB98/GEN NMR

erre ene a

0 1
  C       16.161      68.277     -90.980
  O       16.421      69.102     -92.099
  H       15.246      67.710     -91.170
  H       16.021      68.886     -90.083
  H       16.987      67.577     -90.833
  P       17.711      70.050     -92.007
  C       19.413      70.923     -93.734
  O       18.296      70.073     -93.504
  C       19.651      71.098     -95.234
  O       20.149      69.846     -95.771
  C       18.387      71.468     -96.012
  O       18.723      72.399     -97.039
  C       17.955      70.153     -96.637
  O       17.181      70.341     -97.818
  C       19.299      69.463     -96.865
  N       20.814      65.229     -99.273
  C       21.223      66.512     -99.359
  N       20.774      67.580     -98.665
  C       19.835      67.209     -97.777
  C       19.316      65.942     -97.578
  C       19.842      64.918     -98.383
  N       19.413      63.612     -98.321
  N       18.334      65.970     -96.606
  C       18.274      67.230     -96.216
  N       19.151      68.019     -96.908
  O       18.696      69.702     -90.942
  O       17.042      71.497     -91.876
  H       17.183      69.503     -98.325
  H       16.299      71.605     -92.498
  H       22.009      66.711    -100.083
  H       17.607      67.619     -95.454
  H       19.776      69.770     -97.804
  H       17.346      69.587     -95.921
  H       17.610      71.888     -95.372
  H       20.442      71.843     -95.381
  H       20.310      70.501     -93.268
  H       19.855      62.937     -98.925
  H       18.702      63.357     -97.651
  H       19.203      71.890     -93.268
  P       18.606      73.965     -96.718
  C       19.934      76.116     -97.237
  O       19.730      74.744     -97.558
  O       18.513      74.331     -95.275
  O       17.262      74.376     -97.493
  H       16.779      75.037     -96.961
  H       20.703      76.518     -97.862
  H       20.226      76.203     -96.211
  H       19.025      76.658     -97.396

 6  7  8  9  10  11  12  13  14  15  25  28  32  33  34  35 0
 6-311+G(2d,p)
 ****
 36  39  40 0
 6-311+G(2d,p)
 ****
 1  2  3  4  5  16  17  18  19  20  21  22  23  24 0
 3-21G
 ****
 26  27  29  30  31  37  38  41  42  43  44  45  46  47 0
 3-21G
 ****
 48 0
 3-21G
 ****


