%nproc=1
%NoSave
%Mem=1900MB
#P OB98/GEN NMR

erre ene a

0 1
  C      428.403    -253.219      25.501
  O      428.537    -254.496      24.900
  H      428.561    -252.455      24.736
  H      429.142    -253.094      26.295
  H      427.390    -253.104      25.908
  P      428.369    -255.764      25.867
  C      425.825    -255.870      26.274
  O      426.916    -256.353      25.501
  C      424.552    -256.673      25.966
  O      424.185    -256.435      24.581
  C      424.734    -258.182      26.156
  O      423.531    -258.726      26.713
  C      424.920    -258.700      24.739
  O      424.539    -260.070      24.605
  C      424.065    -257.721      23.935
  N      423.752    -259.912      19.335
  C      423.097    -260.147      20.491
  N      423.232    -259.499      21.668
  C      424.117    -258.499      21.562
  C      424.873    -258.143      20.452
  C      424.668    -258.917      19.294
  N      425.352    -258.707      18.120
  N      425.712    -257.083      20.751
  C      425.463    -256.792      22.019
  N      424.515    -257.631      22.553
  O      428.609    -255.516      27.315
  O      429.352    -256.825      25.177
  H      425.128    -260.600      25.179
  H      429.254    -256.831      24.210
  H      422.370    -260.955      20.470
  H      425.948    -256.006      22.593
  H      423.006    -258.008      23.917
  H      425.978    -258.616      24.453
  H      425.584    -258.427      26.798
  H      423.734    -256.285      26.585
  H      425.650    -254.811      26.050
  H      425.130    -259.295      17.323
  H      426.016    -257.949      18.060
  H      426.088    -255.964      27.331
  P      423.555    -260.237      27.252
  C      423.282    -259.372      29.673
  O      422.815    -260.280      28.673
  O      424.882    -260.932      27.192
  O      422.489    -260.968      26.296
  H      422.811    -261.869      26.098
  H      422.709    -259.501      30.567
  H      423.173    -258.367      29.321
  H      424.314    -259.568      29.879

 6  7  8  9  10  11  12  13  14  15  25  28  32  33  34  35 0
 6-311+G(2d,p)
 ****
 36  39  40 0
 6-311+G(2d,p)
 ****
 1  2  3  4  5  16  17  18  19  20  21  22  23  24 0
 3-21G
 ****
 26  27  29  30  31  37  38  41  42  43  44  45  46  47 0
 3-21G
 ****
 48 0
 3-21G
 ****


