%nproc=1
%NoSave
%Mem=1900MB
#P OB98/GEN NMR

erre ene a

0 1
  C      -24.870      -8.527      10.419
  O      -23.726      -9.335      10.616
  H      -25.736      -8.972      10.916
  H      -24.683      -7.542      10.854
  H      -25.071      -8.408       9.350
  P      -23.787     -10.823      10.019
  C      -24.696     -13.064      10.963
  O      -24.783     -11.647      10.973
  C      -25.830     -13.665      11.788
  O      -27.108     -13.251      11.258
  C      -25.869     -15.192      11.806
  O      -24.930     -15.733      12.724
  C      -27.299     -15.434      12.261
  O      -27.391     -15.255      13.688
  C      -28.060     -14.310      11.540
  N      -30.464     -18.143       9.145
  C      -30.044     -18.001      10.423
  N      -29.430     -16.940      10.991
  C      -29.274     -15.947      10.098
  C      -29.671     -15.939       8.770
  C      -30.287     -17.106       8.288
  N      -30.652     -17.270       6.960
  N      -29.325     -14.746       8.165
  C      -28.715     -14.055       9.107
  N      -28.670     -14.738      10.295
  O      -22.339     -11.411      10.379
  O      -24.072     -10.909       8.556
  H      -26.797     -15.915      14.093
  H      -21.756     -11.323       9.603
  H      -30.224     -18.847      11.073
  H      -28.294     -13.069       8.977
  H      -28.849     -13.877      12.166
  H      -27.657     -16.444      12.037
  H      -25.736     -15.608      10.800
  H      -25.753     -13.269      12.810
  H      -23.736     -13.374      11.390
  H      -30.632     -18.237       6.650
  H      -30.257     -16.579       6.330
  H      -24.756     -13.411       9.927
  P      -24.765     -17.329      12.769
  C      -26.032     -19.286      13.889
  O      -26.022     -17.897      13.589
  O      -23.532     -17.527      13.772
  O      -24.503     -17.979      11.453
  H      -22.829     -18.047      13.330
  H      -26.920     -19.527      14.435
  H      -25.174     -19.529      14.480
  H      -26.009     -19.848      12.979

 6  7  8  9  10  11  12  13  14  15  25  28  32  33  34  35 0
 6-311+G(2d,p)
 ****
 36  39  40 0
 6-311+G(2d,p)
 ****
 1  2  3  4  5  16  17  18  19  20  21  22  23  24 0
 3-21G
 ****
 26  27  29  30  31  37  38  41  42  43  44  45  46  47  48 0
 3-21G
 ****


