%nproc=1
%NoSave
%Mem=1900MB
#P OB98/GEN NMR

erre ene a

0 1
  C     -261.609    -504.761     359.909
  O     -262.268    -503.875     360.824
  P     -263.079    -502.642     360.186
  C     -265.352    -503.231     361.280
  O     -264.305    -502.279     361.151
  C     -266.282    -502.907     362.456
  O     -265.713    -503.369     363.711
  C     -266.570    -501.404     362.612
  O     -267.908    -501.280     363.105
  C     -265.608    -500.983     363.703
  O     -266.030    -499.770     364.328
  C     -265.638    -502.231     364.613
  N     -264.479    -502.326     365.499
  C     -264.592    -501.726     366.752
  O     -265.614    -501.082     367.052
  N     -263.546    -501.816     367.637
  C     -262.449    -502.420     367.273
  N     -261.438    -502.470     368.188
  C     -262.263    -503.010     365.930
  C     -263.303    -502.929     365.107
  O     -263.779    -503.284     358.894
  O     -262.198    -501.488     359.810
  H     -266.070    -499.069     363.641
  H     -263.616    -502.728     358.110
  H     -261.325    -503.476     365.667
  H     -263.265    -503.342     364.113
  H     -266.532    -502.232     365.230
  H     -264.602    -500.832     363.291
  H     -266.459    -500.844     361.679
  H     -267.227    -503.444     362.306
  H     -261.616    -502.055     369.100
  H     -264.929    -504.225     361.424
  H     -260.552    -502.907     368.012
  H     -265.911    -503.276     360.336
  P     -268.984    -500.530     362.177
  C     -271.020    -501.644     363.291
  O     -270.309    -500.433     363.090
  O     -269.386    -501.692     361.144
  O     -268.568    -499.286     361.465
  H     -270.003    -501.334     360.477
  H     -271.814    -501.454     364.019
  H     -270.347    -502.419     363.682
  H     -271.472    -501.974     362.354
  H     -261.110    -505.533     360.457
  H     -260.893    -504.212     359.334
  H     -262.332    -505.200     359.254

 3  4  5  6  7  8  9  10  11  12  13  21  23  27  28  29  30  32 0
 6-311+G(2d,p)
 ****
 34  35 0
 6-311+G(2d,p)
 ****
 1  2  14  15  16  17  18  19  20  22  24  25  26 0
 3-21G
 ****
 31  33  36  37  38  39  40  41  42  43  44  45  46 0
 3-21G
 ****


