%nproc=1
%NoSave
%Mem=1900MB
#P OB98/GEN NMR

erre ene a

0 1
  C       48.221     -41.142     -30.339
  O       48.502     -42.147     -29.386
  H       49.049     -40.430     -30.376
  H       48.115     -41.608     -31.321
  H       47.292     -40.621     -30.093
  P       48.401     -41.739     -27.838
  C       50.961     -41.936     -27.454
  O       49.820     -41.091     -27.448
  C       52.166     -41.212     -26.858
  O       51.811     -40.742     -25.526
  C       53.426     -42.081     -26.730
  O       54.566     -41.275     -27.043
  C       53.459     -42.429     -25.253
  O       54.771     -42.724     -24.786
  C       52.856     -41.171     -24.636
  N       54.225     -42.160     -19.841
  C       54.912     -41.663     -20.891
  N       54.455     -41.379     -22.126
  C       53.130     -41.593     -22.204
  C       52.295     -42.089     -21.219
  C       52.900     -42.398     -19.988
  N       52.224     -42.969     -18.934
  N       51.007     -42.222     -21.700
  C       51.072     -41.837     -22.960
  N       52.335     -41.450     -23.310
  O       48.426     -43.164     -27.105
  O       47.203     -40.937     -27.460
  H       55.092     -43.531     -25.233
  H       47.518     -43.512     -27.038
  H       55.970     -41.481     -20.721
  H       50.251     -41.848     -23.662
  H       53.585     -40.357     -24.540
  H       52.823     -43.303     -25.068
  H       53.416     -42.971     -27.369
  H       52.371     -40.322     -27.466
  H       51.191     -42.217     -28.487
  H       52.762     -43.254     -18.131
  H       51.265     -43.252     -19.066
  H       50.741     -42.844     -26.883
  P       55.171     -41.395     -28.523
  C       56.857     -43.234     -27.778
  O       55.833     -42.844     -28.686
  O       56.435     -40.414     -28.484
  O       54.211     -41.013     -29.602
  H       56.572     -40.004     -29.356
  H       57.191     -44.221     -28.020
  H       56.472     -43.223     -26.780
  H       57.678     -42.551     -27.851

 6  7  8  9  10  11  12  13  14  15  25  28  32  33  34  35 0
 6-311+G(2d,p)
 ****
 36  39  40 0
 6-311+G(2d,p)
 ****
 1  2  3  4  5  16  17  18  19  20  21  22  23  24 0
 3-21G
 ****
 26  27  29  30  31  37  38  41  42  43  44  45  46  47 0
 3-21G
 ****
 48 0
 3-21G
 ****


