%nproc=1
%NoSave
%Mem=1900MB
#P OB98/GEN NMR

erre ene a

0 1
  C     -236.675    -541.333     573.090
  O     -236.112    -540.047     573.241
  H     -237.095    -541.412     572.083
  H     -237.477    -541.489     573.816
  H     -235.909    -542.104     573.206
  P     -235.472    -539.649     574.657
  C     -237.505    -538.202     575.333
  O     -236.700    -539.336     575.646
  C     -237.902    -537.466     576.619
  O     -238.565    -536.231     576.233
  C     -238.869    -538.282     577.483
  O     -238.433    -538.412     578.835
  C     -240.218    -537.606     577.237
  O     -241.148    -537.752     578.291
  C     -239.827    -536.159     576.920
  N     -240.812    -535.451     576.109
  C     -240.690    -534.065     576.016
  O     -239.815    -533.397     576.555
  N     -241.644    -533.436     575.250
  C     -242.686    -534.038     574.600
  O     -243.499    -533.422     573.928
  C     -242.775    -535.499     574.752
  C     -241.854    -536.127     575.491
  O     -234.420    -538.590     574.615
  O     -234.894    -541.029     575.227
  H     -241.994    -537.359     577.985
  H     -233.920    -541.032     575.142
  H     -241.558    -532.438     575.166
  H     -243.597    -536.009     574.264
  H     -241.887    -537.205     575.625
  H     -239.684    -535.586     577.841
  H     -240.667    -538.058     576.343
  H     -238.926    -539.318     577.138
  H     -236.994    -537.193     577.164
  H     -238.396    -538.562     574.805
  H     -236.951    -537.528     574.671
  P     -237.622    -539.655     579.421
  C     -239.597    -541.091     580.407
  O     -238.583    -540.932     579.419
  O     -236.845    -539.396     580.676
  O     -236.563    -540.008     578.264
  H     -235.762    -540.353     578.708
  H     -240.126    -542.004     580.231
  H     -240.279    -540.268     580.354
  H     -239.148    -541.120     581.378

 6  7  8  9  10  11  12  13  14  15  16  26  31  32  33  34  35 0
 6-311+G(2d,p)
 ****
 36  37 0
 6-311+G(2d,p)
 ****
 1  2  3  4  5  17  18  19  20  21  22  23  24  25 0
 3-21G
 ****
 27  28  29  30  38  39  40  41  42  43  44  45 0
 3-21G
 ****


