%nproc=1
%NoSave
%Mem=1900MB
#P OB98/GEN NMR

erre ene a

0 1
  C       40.188      92.927     337.127
  O       41.532      92.702     337.502
  H       39.649      91.978     337.181
  H       40.133      93.302     336.103
  H       39.715      93.637     337.811
  P       42.562      93.928     337.444
  C       43.620      93.803     339.794
  O       42.705      94.484     338.943
  C       42.884      93.239     341.015
  O       41.864      92.329     340.533
  C       43.818      92.463     341.957
  O       43.744      92.909     343.309
  C       43.467      91.007     341.674
  O       43.720      90.120     342.745
  C       42.000      91.081     341.238
  N       41.575      89.965     340.395
  C       40.263      89.523     340.538
  O       39.429      90.011     341.297
  N       39.909      88.462     339.744
  C       40.714      87.817     338.855
  O       40.337      86.876     338.167
  C       42.095      88.316     338.767
  C       42.457      89.350     339.531
  O       42.270      94.970     336.416
  O       43.979      93.230     337.183
  H       43.247      89.285     342.556
  H       44.227      93.333     336.246
  H       38.958      88.141     339.831
  H       42.766      87.820     338.080
  H       43.468      89.745     339.489
  H       41.343      91.109     342.107
  H       44.075      90.667     340.827
  H       44.867      92.633     341.693
  H       42.377      94.060     341.532
  H       44.385      94.519     340.109
  H       44.100      92.987     339.242
  P       44.790      93.899     343.997
  C       43.353      96.053     344.412
  O       44.357      95.399     343.649
  O       46.226      93.549     343.811
  O       44.452      93.760     345.569
  H       45.297      93.880     346.046
  H       43.203      97.042     344.031
  H       43.662      96.108     345.435
  H       42.438      95.502     344.345

 6  7  8  9  10  11  12  13  14  15  16  26  31  32  33  34  35 0
 6-311+G(2d,p)
 ****
 36  37 0
 6-311+G(2d,p)
 ****
 1  2  3  4  5  17  18  19  20  21  22  23  24  25 0
 3-21G
 ****
 27  28  29  30  38  39  40  41  42  43  44  45 0
 3-21G
 ****


