%nproc=1
%NoSave
%Mem=1900MB
#P OB98/GEN NMR

erre ene a

0 1
  C     -210.942      -9.099     113.205
  O     -211.998      -8.129     113.306
  P     -211.613      -6.565     113.432
  C     -212.674      -6.141     115.783
  O     -211.505      -6.141     114.975
  C     -212.813      -4.825     116.567
  O     -212.000      -4.862     117.772
  C     -212.388      -3.572     115.773
  O     -213.217      -2.490     116.211
  C     -210.957      -3.359     116.253
  O     -210.483      -2.034     116.025
  C     -211.113      -3.723     117.733
  N     -209.852      -4.034     118.407
  C     -209.037      -2.970     118.793
  O     -209.287      -1.791     118.564
  N     -207.889      -3.307     119.469
  C     -207.454      -4.579     119.738
  O     -206.398      -4.813     120.309
  C     -208.328      -5.662     119.273
  C     -209.476      -5.341     118.647
  O     -212.983      -5.854     112.984
  O     -210.486      -6.112     112.564
  H     -209.635      -1.948     116.498
  H     -212.788      -5.130     112.354
  H     -207.301      -2.553     119.768
  H     -208.030      -6.682     119.478
  H     -210.140      -6.135     118.301
  H     -211.617      -2.904     118.261
  H     -210.294      -4.050     115.727
  H     -212.468      -3.702     114.691
  H     -213.856      -4.733     116.884
  H     -212.609      -6.974     116.498
  H     -213.548      -6.301     115.148
  P     -214.413      -2.001     115.245
  C     -212.852      -0.777     113.535
  O     -213.779      -1.807     113.775
  O     -214.601      -0.493     115.765
  O     -215.664      -2.823     115.333
  H     -213.756      -0.028     115.888
  H     -212.140      -0.674     114.352
  H     -213.381       0.172     113.393
  H     -212.297      -1.016     112.619
  H     -211.364     -10.079     113.129
  H     -210.323      -9.044     114.076
  H     -210.353      -8.896     112.335

 3  4  5  6  7  8  9  10  11  12  13  23  28  29  30  31  32 0
 6-311+G(2d,p)
 ****
 33  34 0
 6-311+G(2d,p)
 ****
 1  2  14  15  16  17  18  19  20  21  22  24  25  26 0
 3-21G
 ****
 27  35  36  37  38  39  40  41  42  43  44  45 0
 3-21G
 ****


