%nproc=1
%NoSave
%Mem=1900MB
#P OB98/GEN NMR

erre ene a

0 1
  C      101.097      96.027     -18.104
  O      101.826      95.662     -19.260
  H      101.662      96.784     -17.557
  H      100.955      95.156     -17.458
  H      100.126      96.444     -18.385
  P      101.153      94.568     -20.219
  C      101.079      96.115     -22.308
  O      100.341      95.384     -21.337
  C      100.860      97.611     -22.100
  O      101.476      98.027     -20.858
  C      101.491      98.481     -23.178
  O      100.719      98.518     -24.364
  C      101.570      99.820     -22.463
  O      100.327     100.528     -22.537
  C      101.864      99.411     -21.016
  N      105.140     101.995     -18.075
  C      103.789     101.986     -18.130
  N      102.989     101.258     -18.936
  C      103.720     100.453     -19.726
  C      105.100     100.351     -19.780
  C      105.826     101.171     -18.899
  N      107.199     101.199     -18.859
  N      105.482      99.444     -20.748
  C      104.356      99.000     -21.265
  N      103.264      99.579     -20.676
  O      100.005      93.938     -19.299
  O      102.082      93.525     -20.741
  H      100.177     100.721     -23.483
  H      100.312      93.088     -18.931
  H      103.287     102.661     -17.443
  H      104.277      98.274     -22.064
  H      101.283      99.995     -20.292
  H      102.340     100.453     -22.906
  H      102.510      98.136     -23.392
  H       99.781      97.801     -22.026
  H      100.735      95.836     -23.310
  H      102.140      95.863     -22.211
  H      107.653     101.861     -18.252
  H      107.720     100.673     -19.549
  P      101.420      98.041     -25.725
  C       99.759      96.175     -26.473
  O      101.036      96.501     -25.941
  O      102.978      97.998     -25.359
  O      101.150      98.917     -26.901
  H      103.507      98.270     -26.133
  H       99.666      95.112     -26.552
  H       99.654      96.615     -27.443
  H       98.996      96.552     -25.825

 6  7  8  9  10  11  12  13  14  15  25  28  32  33  34  35 0
 6-311+G(2d,p)
 ****
 36  37  40 0
 6-311+G(2d,p)
 ****
 1  2  3  4  5  16  17  18  19  20  21  22  23  24 0
 3-21G
 ****
 26  27  29  30  31  38  39 41  42  43  44  45  46  47  48 0
 3-21G
 ****


