%nproc=1
%NoSave
%Mem=1900MB
#P OB98/GEN NMR

erre ene a

0 1
  C     -316.287      83.771    -336.558
  O     -315.071      84.343    -336.112
  P     -315.101      85.818    -335.487
  C     -313.938      85.175    -333.243
  O     -315.109      85.665    -333.885
  C     -313.048      86.332    -332.786
  O     -313.831      87.233    -331.944
  C     -311.823      85.896    -331.976
  O     -310.753      86.812    -332.280
  C     -312.281      86.110    -330.543
  O     -311.205      86.208    -329.617
  C     -313.096      87.396    -330.708
  N     -313.984      87.658    -329.580
  C     -313.592      88.619    -328.656
  O     -312.536      89.257    -328.738
  N     -314.414      88.797    -327.577
  C     -315.525      88.059    -327.293
  O     -316.157      88.187    -326.241
  C     -315.899      87.051    -328.296
  C     -315.127      86.896    -329.379
  O     -316.578      86.332    -335.828
  O     -314.048      86.738    -336.015
  H     -311.586      86.381    -328.742
  H     -316.565      86.919    -336.606
  H     -314.146      89.499    -326.907
  H     -316.792      86.462    -328.106
  H     -315.371      86.151    -330.130
  H     -312.427      88.257    -330.845
  H     -312.913      85.270    -330.236
  H     -311.505      84.865    -332.174
  H     -312.741      86.901    -333.671
  H     -313.382      84.545    -333.944
  H     -314.223      84.547    -332.386
  P     -309.255      86.235    -332.289
  C     -309.345      85.660    -334.838
  O     -309.157      85.210    -333.515
  O     -309.284      85.295    -330.992
  O     -308.200      87.304    -332.228
  H     -310.099      84.771    -330.930
  H     -308.967      86.676    -334.986
  H     -310.410      85.638    -335.080
  H     -308.819      84.988    -335.524
  H     -316.099      82.791    -336.945
  H     -316.709      84.384    -337.327
  H     -316.972      83.705    -335.739

 3  4  5  6  7  8  9  10  11  12  13  23  28  29  30  31  32 0
 6-311+G(2d,p)
 ****
 33  34 0
 6-311+G(2d,p)
 ****
 1  2  14  15  16  17  18  19  20  21  22  24  25  26 0
 3-21G
 ****
 27  35  36  37  38  39  40  41  42  43  44  45 0
 3-21G
 ****


