%nproc=1
%NoSave
%Mem=1900MB
#P OB98/GEN NMR

erre ene a

0 1
  C     -102.186      52.653      13.743
  O     -101.372      52.385      12.609
  P     -101.044      50.856      12.255
  C     -103.229      50.335      10.958
  O     -102.451      50.092      12.123
  C     -103.696      49.026      10.323
  O     -104.492      48.289      11.290
  C     -104.555      49.199       9.066
  O     -104.275      48.090       8.202
  C     -105.970      49.067       9.598
  O     -106.902      48.724       8.576
  C     -105.763      47.997      10.667
  N     -109.912      45.551      12.381
  C     -109.055      45.271      11.376
  N     -107.971      45.970      10.980
  C     -107.811      47.067      11.740
  C     -108.624      47.500      12.776
  C     -109.722      46.684      13.097
  N     -110.591      46.961      14.127
  N     -108.151      48.686      13.299
  C     -107.074      48.964      12.593
  N     -106.816      48.003      11.657
  O     -100.443      50.298      13.629
  O     -100.094      50.654      11.125
  H     -107.053      49.512       8.022
  H      -99.492      50.107      13.522
  H     -109.262      44.359      10.821
  H     -106.454      49.841      12.718
  H     -105.705      46.988      10.238
  H     -106.289      50.018      10.041
  H     -104.389      50.143       8.536
  H     -102.811      48.416      10.101
  H     -102.613      50.876      10.233
  H     -111.268      46.261      14.383
  H     -110.349      47.695      14.784
  H     -104.090      50.959      11.216
  P     -104.109      48.408       6.640
  C     -101.707      49.325       6.976
  O     -103.022      49.575       6.521
  O     -105.489      49.131       6.262
  O     -103.870      47.201       5.795
  H     -105.694      48.982       5.320
  H     -101.002      49.879       6.350
  H     -101.457      48.260       6.932
  H     -101.613      49.669       8.010
  H     -102.314      53.710      13.848
  H     -101.715      52.262      14.621
  H     -103.141      52.189      13.614

 3  4  5  6  7  8  9  10  11  12  22  25  29  30  31  32 0
 6-311+G(2d,p)
 ****
 33  36  37 0
 6-311+G(2d,p)
 ****
 1  2  13  14  15  16  17  18  19  20  21  23  24  26 0
 3-21G
 ****
 27  28  34  35  38  39  40  41  42  43  44  45  46  47  48 0
 3-21G
 ****


