%nproc=1
%NoSave
%Mem=1900MB
#P OB98/GEN NMR

erre ene a

0 1
  C      554.059     766.267    -509.291
  O      553.373     765.774    -508.120
  P      554.283     765.343    -506.891
  C      553.628     767.457    -505.500
  O      554.682     766.678    -506.059
  C      553.869     767.644    -504.002
  O      553.891     766.382    -503.288
  C      555.216     768.291    -503.669
  O      555.196     769.683    -503.954
  C      555.351     767.941    -502.199
  O      554.560     768.835    -501.392
  C      554.744     766.527    -502.153
  N      558.610     764.380    -499.534
  C      557.789     765.420    -499.255
  N      556.788     765.941    -500.001
  C      556.656     765.245    -501.157
  C      557.399     764.156    -501.568
  C      558.434     763.728    -500.705
  N      559.269     762.668    -501.006
  N      556.966     763.720    -502.804
  C      555.991     764.534    -503.139
  N      555.757     765.472    -502.166
  O      555.669     764.902    -507.561
  O      553.709     764.245    -506.059
  H      553.656     768.823    -501.763
  H      555.766     763.931    -507.522
  H      557.974     765.910    -498.306
  H      555.442     764.504    -504.069
  H      554.130     766.365    -501.236
  H      556.403     767.993    -501.837
  H      556.015     767.808    -504.262
  H      553.057     768.258    -503.594
  H      552.666     766.968    -505.663
  H      560.013     762.463    -500.371
  H      559.186     762.220    -501.917
  H      553.584     768.416    -506.017
  P      556.498     770.315    -504.650
  C      554.828     771.086    -506.434
  O      556.075     770.494    -506.193
  O      557.495     769.066    -504.685
  O      557.028     771.547    -503.981
  H      557.046     768.255    -505.010
  H      554.676     771.171    -507.522
  H      554.786     772.092    -505.994
  H      554.016     770.456    -506.027
  H      553.342     766.522    -510.043
  H      554.715     765.509    -509.666
  H      554.628     767.135    -509.032

 3  4  5  6  7  8  9  10  11  12  22  25  29  30  31  32 0
 6-311+G(2d,p)
 ****
 33  36  37 0
 6-311+G(2d,p)
 ****
 1  2  13  14  15  16  17  18  19  20  21  23  24  26 0
 3-21G
 ****
 27  28  34  35  38  39  40  41  42  43  44  45  46  47  48 0
 3-21G
 ****


