%nproc=1
%NoSave
%Mem=1900MB
#P OB98/GEN NMR

erre ene a

0 1
  C       72.069      41.226     -20.492
  O       72.631      42.497     -20.240
  P       72.687      43.630     -21.372
  C       75.155      43.098     -21.856
  O       74.223      44.090     -21.454
  C       76.565      43.425     -21.361
  O       77.490      42.398     -21.813
  C       77.110      44.779     -21.836
  O       77.934      45.275     -20.776
  C       77.959      44.388     -23.031
  O       78.907      45.388     -23.381
  C       78.545      43.057     -22.544
  N       79.044      42.244     -23.647
  C       80.328      42.534     -24.113
  O       80.955      43.489     -23.649
  N       80.853      41.775     -25.128
  C       80.115      40.874     -25.698
  N       80.689      40.149     -26.695
  C       78.712      40.621     -25.322
  C       78.249      41.324     -24.290
  O       71.707      44.741     -21.207
  O       72.500      42.812     -22.734
  H       79.337      45.707     -22.557
  H       71.549      42.567     -22.861
  H       78.120      39.899     -25.863
  H       77.234      41.206     -23.941
  H       79.371      43.232     -21.843
  H       77.314      44.223     -23.902
  H       76.331      45.500     -22.091
  H       76.554      43.391     -20.265
  H       81.659      40.345     -26.911
  H       75.166      43.066     -22.949
  H       80.233      39.371     -27.146
  H       74.835      42.115     -21.496
  P       77.515      46.571     -19.932
  C       78.309      48.396     -21.540
  O       78.548      47.731     -20.313
  O       77.340      46.341     -18.466
  O       76.148      47.062     -20.612
  H       75.693      47.683     -20.014
  H       78.883      49.326     -21.559
  H       77.247      48.631     -21.658
  H       78.633      47.761     -22.369
  H       72.133      40.626     -19.608
  H       72.606      40.750     -21.286
  H       71.043      41.339     -20.773

 3  4  5  6  7  8  9  10  11  12  13  23  27  28  29  30  32 0
 6-311+G(2d,p)
 ****
 34  35 0
 6-311+G(2d,p)
 ****
 1  2  14  15  16  17  18  19  20  21  22  24  25  26 0
 3-21G
 ****
 31  33  36  37  38  39  40  41  42  43  44  45  46 0
 3-21G
 ****


