%nproc=1
%NoSave
%Mem=1900MB
#P OB98/GEN NMR

erre ene a

0 1
  C     1044.811    -898.955     403.060
  O     1043.445    -898.645     403.319
  P     1042.799    -897.185     403.194
  C     1043.773    -895.775     405.195
  O     1043.824    -896.105     403.805
  C     1044.639    -894.545     405.487
  O     1044.000    -893.335     404.927
  C     1044.829    -894.285     406.993
  O     1046.158    -893.885     407.342
  C     1043.707    -893.295     407.298
  O     1043.924    -892.575     408.501
  C     1043.640    -892.465     406.034
  N     1039.997    -889.385     407.796
  C     1041.098    -889.865     408.451
  N     1041.276    -889.485     409.739
  N     1041.996    -890.635     407.897
  C     1041.651    -891.005     406.614
  C     1040.550    -890.595     405.873
  C     1039.624    -889.675     406.496
  O     1038.644    -889.215     405.964
  N     1040.574    -891.185     404.613
  C     1041.632    -891.915     404.608
  N     1042.359    -891.825     405.798
  O     1041.382    -897.075     403.627
  O     1042.866    -896.865     401.593
  H     1044.671    -891.955     408.352
  H     1042.092    -896.325     401.416
  H     1039.346    -888.725     408.263
  H     1041.969    -892.525     403.762
  H     1044.382    -891.645     406.049
  H     1042.788    -893.855     407.427
  H     1040.573    -889.005     410.260
  H     1044.666    -895.225     407.574
  H     1041.961    -890.005     410.269
  H     1045.597    -894.605     404.982
  H     1044.190    -896.645     405.740
  H     1042.760    -895.615     405.527
  P     1047.152    -894.585     408.405
  C     1046.995    -893.345     410.667
  O     1046.534    -894.455     409.853
  O     1048.434    -893.635     408.452
  O     1047.549    -895.995     408.019
  H     1049.220    -894.095     408.144
  H     1046.713    -893.515     411.694
  H     1046.546    -892.445     410.306
  H     1048.074    -893.295     410.596
  H     1044.976    -900.000     403.219
  H     1045.436    -898.391     403.720
  H     1045.047    -898.706     402.046

 3  4  5  6  7  8  9  10  11  12  23  26  30  31 0
 6-311+G(2d,p)
 ****
 33  35  36  37  38 0
 6-311+G(2d,p)
 ****
 1  2  13  14  15  16  17  18  19  20  21  22  24  25 0
 3-21G
 ****
 27  28  29  32  34  39  40  41  42  43  44  45  46  47  48  49 0
 3-21G
 ****


