%nproc=1
%NoSave
%Mem=1900MB
#P OB98/GEN NMR

erre ene a

0 1
  C      -30.961     -22.533    -259.348
  O      -30.834     -21.244    -258.782
  H      -30.098     -22.717    -259.995
  H      -31.871     -22.581    -259.954
  H      -30.992     -23.302    -258.574
  P      -31.779     -20.840    -257.555
  C      -31.523     -19.176    -255.600
  O      -31.215     -19.466    -256.954
  C      -30.630     -18.050    -255.061
  O      -29.276     -18.554    -254.918
  C      -30.562     -16.868    -256.037
  O      -30.315     -15.632    -255.374
  C      -29.358     -17.218    -256.906
  O      -28.778     -16.082    -257.536
  C      -28.444     -17.899    -255.887
  N      -24.591     -18.645    -259.146
  C      -25.379     -17.525    -258.969
  N      -25.103     -16.463    -259.762
  N      -26.362     -17.459    -258.109
  C      -26.571     -18.616    -257.438
  C      -25.876     -19.799    -257.544
  C      -24.763     -19.852    -258.472
  O      -24.053     -20.824    -258.684
  N      -26.387     -20.758    -256.700
  C      -27.389     -20.165    -256.095
  N      -27.532     -18.855    -256.489
  O      -31.391     -21.901    -256.415
  O      -33.251     -20.856    -257.840
  H      -27.984     -16.381    -258.014
  H      -32.117     -21.987    -255.771
  H      -23.827     -18.636    -259.803
  H      -28.035     -20.623    -255.360
  H      -27.837     -17.146    -255.355
  H      -29.691     -17.896    -257.699
  H      -24.490     -16.543    -260.563
  H      -31.462     -16.773    -256.648
  H      -25.846     -15.766    -259.866
  H      -30.965     -17.747    -254.062
  H      -31.371     -20.097    -255.029
  H      -32.577     -18.910    -255.498
  P      -31.271     -14.386    -255.689
  C      -31.913     -12.206    -254.336
  O      -30.968     -13.194    -254.670
  O      -32.722     -14.900    -255.263
  O      -31.234     -13.929    -257.122
  H      -33.307     -14.949    -256.040
  H      -31.480     -11.519    -253.639
  H      -32.772     -12.668    -253.895
  H      -32.206     -11.679    -255.220

 6  7  8  9  10  11  12  13  14  15  26  29  33  34 0
 6-311+G(2d,p)
 ****
 36  38  39  40  41 0
 6-311+G(2d,p)
 ****
 1  2  3  4  5  16  17  18  19  20  21  22  23  24  25 0
 3-21G
 ****
 27  28  30  31  32  35  37  42  43  44  45  46  47 0
 3-21G
 ****
 48  49 0
 3-21G
 ****


