%nproc=1
%NoSave
%Mem=1900MB
#P OB98/GEN NMR

erre ene a

0 1
  C     -360.429     746.922     -86.975
  O     -360.274     746.915     -88.375
  H     -359.436     746.889     -86.506
  H     -360.991     746.038     -86.653
  H     -360.937     747.830     -86.640
  P     -361.629     747.000     -89.241
  C     -362.384     745.712     -91.383
  O     -361.673     745.670     -90.142
  C     -361.953     744.548     -92.267
  O     -360.585     744.745     -92.692
  C     -361.961     743.203     -91.561
  O     -363.278     742.656     -91.480
  C     -361.033     742.384     -92.459
  O     -361.712     741.859     -93.599
  C     -360.004     743.433     -92.895
  N     -355.582     740.897     -92.566
  C     -356.602     740.829     -93.456
  N     -357.748     741.557     -93.475
  C     -357.772     742.438     -92.458
  C     -356.800     742.614     -91.477
  C     -355.669     741.797     -91.565
  N     -354.642     741.838     -90.630
  N     -357.206     743.589     -90.566
  C     -358.378     743.993     -91.014
  N     -358.762     743.318     -92.158
  O     -361.303     748.166     -90.301
  O     -362.872     747.290     -88.459
  H     -362.399     741.245     -93.255
  H     -361.643     749.016     -89.970
  H     -356.498     740.095     -94.246
  H     -359.002     744.751     -90.543
  H     -359.753     743.347     -93.953
  H     -360.608     741.535     -91.904
  H     -361.535     743.277     -90.553
  H     -362.586     744.538     -93.160
  H     -362.147     746.655     -91.892
  H     -363.463     745.670     -91.176
  H     -353.871     741.209     -90.741
  H     -354.749     742.429     -89.821
  P     -363.792     742.095     -90.071
  C     -362.983     740.308     -88.342
  O     -362.722     741.028     -89.550
  O     -365.065     741.193     -90.455
  O     -364.153     743.151     -89.068
  H     -365.881     741.683     -90.301
  H     -362.171     739.641     -88.142
  H     -363.887     739.746     -88.450
  H     -363.086     740.998     -87.531

 6  7  8  9  10  11  12  13  14  15  25  28  32  33  34  35 0
 6-311+G(2d,p)
 ****
 36  37  40 0
 6-311+G(2d,p)
 ****
 1  2  3  4  5  16  17  18  19  20  21  22  23  24 0
 3-21G
 ****
 26  27  29  30  31  38  39 41  42  43  44  45  46  47  48 0
 3-21G
 ****


