%nproc=1
%NoSave
%Mem=1900MB
#P OB98/GEN NMR

erre ene a

0 1
  C      -12.962      90.120     -42.008
  O      -12.728      91.399     -42.576
  P      -11.648      91.589     -43.746
  C      -13.120      90.590     -45.602
  O      -11.937      90.436     -44.827
  C      -12.799      91.228     -46.952
  O      -11.736      90.475     -47.583
  C      -13.983      91.242     -47.913
  O      -13.937      92.446     -48.687
  C      -13.725      90.069     -48.846
  O      -14.360      90.267     -50.120
  C      -12.194      90.043     -48.881
  N      -12.022      86.122     -52.193
  C      -12.627      87.328     -52.261
  N      -12.650      88.312     -51.333
  C      -11.910      87.970     -50.265
  C      -11.233      86.780     -50.056
  C      -11.308      85.821     -51.082
  N      -10.679      84.596     -51.019
  N      -10.608      86.781     -48.824
  C      -10.888      87.958     -48.311
  N      -11.664      88.719     -49.148
  O      -10.232      91.667     -43.287
  O      -12.105      92.919     -44.503
  H      -13.952      91.059     -50.524
  H      -11.326      93.440     -44.773
  H      -13.167      87.531     -53.181
  H      -10.567      88.308     -47.341
  H      -11.794      90.735     -49.632
  H      -14.134      89.152     -48.403
  H      -14.947      91.161     -47.402
  H      -12.425      92.244     -46.782
  H      -13.809      91.238     -45.053
  H      -10.687      84.025     -51.848
  H      -10.010      84.443     -50.274
  H      -13.595      89.614     -45.740
  P      -15.365      93.072     -49.097
  C      -14.534      95.408     -48.306
  O      -15.505      94.392     -48.201
  O      -16.466      92.063     -49.006
  O      -15.059      93.598     -50.579
  H      -14.101      93.782     -50.704
  H      -14.780      96.202     -47.596
  H      -14.542      95.835     -49.314
  H      -13.541      95.018     -48.075
  H      -13.712      90.199     -41.249
  H      -12.055      89.750     -41.577
  H      -13.295      89.447     -42.770

 3  4  5  6  7  8  9  10  11  12  22  25  29  30  31  32 0
 6-311+G(2d,p)
 ****
 33  36  37 0
 6-311+G(2d,p)
 ****
 1  2  13  14  15  16  17  18  19  20  21  23  24  26 0
 3-21G
 ****
 27  28  34  35  38  39  40  41  42  43  44  45  46  47  48 0
 3-21G
 ****


