%nproc=1
%NoSave
%Mem=1900MB
#P OB98/GEN NMR

erre ene a

0 1
  C       51.643     429.983    -207.500
  O       51.142     428.671    -207.698
  P       50.660     427.835    -206.424
  C       52.838     426.424    -206.270
  O       51.970     427.348    -205.636
  C       53.221     425.299    -205.307
  O       53.916     425.871    -204.154
  C       52.028     424.501    -204.767
  O       52.462     423.145    -204.582
  C       51.783     425.148    -203.412
  O       51.036     424.325    -202.528
  C       53.231     425.403    -202.977
  N       53.332     426.366    -201.879
  C       54.090     425.991    -200.773
  O       54.674     424.915    -200.671
  N       54.115     426.890    -199.735
  C       53.397     428.051    -199.660
  O       53.373     428.752    -198.655
  C       52.615     428.393    -200.855
  C       52.615     427.550    -201.895
  O       50.076     426.487    -207.064
  O       49.649     428.530    -205.571
  H       51.036     424.759    -201.656
  H       49.101     426.531    -207.109
  H       54.669     426.644    -198.929
  H       52.048     429.316    -200.836
  H       52.030     427.763    -202.779
  H       53.711     424.464    -202.681
  H       51.237     426.084    -203.549
  H       51.148     424.536    -205.416
  H       53.931     424.632    -205.812
  H       53.740     426.945    -206.596
  H       52.350     426.011    -207.163
  P       51.531     421.972    -205.165
  C       50.609     421.378    -202.790
  O       50.334     421.770    -204.118
  O       52.470     420.698    -204.931
  O       51.135     422.168    -206.596
  H       52.907     420.710    -204.060
  H       51.554     421.800    -202.436
  H       50.665     420.287    -202.738
  H       49.803     421.723    -202.142
  H       51.921     430.405    -208.443
  H       52.500     429.945    -206.860
  H       50.886     430.589    -207.047

 3  4  5  6  7  8  9  10  11  12  13  23  28  29  30  31  32 0
 6-311+G(2d,p)
 ****
 33  34 0
 6-311+G(2d,p)
 ****
 1  2  14  15  16  17  18  19  20  21  22  24  25  26 0
 3-21G
 ****
 27  35  36  37  38  39  40  41  42  43  44  45 0
 3-21G
 ****


