%nproc=1
%NoSave
%Mem=1900MB
#P OB98/GEN NMR

erre ene a

0 1
  C      615.715     218.494     133.549
  O      615.016     218.407     132.316
  P      613.859     219.453     131.926
  C      612.221     217.897     133.199
  O      612.482     218.610     132.010
  C      610.816     217.283     133.150
  O      610.621     216.472     134.343
  C      609.682     218.303     133.095
  O      608.643     217.745     132.276
  C      609.237     218.404     134.541
  O      607.902     218.897     134.677
  C      609.430     216.953     134.994
  N      609.542     216.825     136.443
  C      608.414     216.364     137.146
  O      607.371     216.102     136.559
  N      608.506     216.218     138.512
  C      609.590     216.579     139.133
  N      609.661     216.364     140.469
  C      610.757     217.181     138.442
  C      610.668     217.248     137.123
  O      614.067     220.182     130.659
  O      613.732     220.393     133.221
  H      607.904     219.838     134.439
  H      614.386     221.142     133.208
  H      611.620     217.496     139.002
  H      611.482     217.641     136.524
  H      608.605     216.324     134.637
  H      609.901     219.082     135.092
  H      609.989     219.274     132.667
  H      610.768     216.605     132.289
  H      608.912     215.796     140.878
  H      612.265     218.599     134.043
  H      610.545     216.316     140.946
  H      612.981     217.128     133.347
  P      607.824     218.722     131.299
  C      605.618     218.537     132.657
  O      606.268     218.361     131.414
  O      608.209     218.114     129.854
  O      608.195     220.171     131.358
  H      608.117     218.819     129.188
  H      604.569     218.246     132.551
  H      605.666     219.580     132.961
  H      606.080     217.897     133.421
  H      616.437     217.707     133.606
  H      615.022     218.402     134.359
  H      616.212     219.439     133.611

 3  4  5  6  7  8  9  10  11  12  13  23  27  28  29  30  32 0
 6-311+G(2d,p)
 ****
 34  35 0
 6-311+G(2d,p)
 ****
 1  2  14  15  16  17  18  19  20  21  22  24  25  26 0
 3-21G
 ****
 31  33  36  37  38  39  40  41  42  43  44  45  46 0
 3-21G
 ****


