%nproc=1
%NoSave
%Mem=1900MB
#P OB98/GEN NMR

erre ene a

0 1
  C      594.739     -98.563    -112.732
  O      595.820     -97.658    -112.875
  H      594.536     -99.018    -113.705
  H      593.844     -98.037    -112.393
  H      595.004     -99.348    -112.020
  P      596.256     -96.850    -111.560
  C      594.546     -95.087    -112.344
  O      595.013     -95.877    -111.258
  C      593.120     -94.597    -112.073
  O      592.256     -95.752    -111.922
  C      592.998     -93.753    -110.803
  O      592.062     -92.700    -111.032
  C      592.427     -94.722    -109.784
  O      591.713     -94.070    -108.740
  C      591.570     -95.634    -110.664
  N      589.878     -98.075    -106.518
  C      589.812     -96.779    -106.895
  N      590.274     -96.213    -108.030
  C      590.812     -97.144    -108.834
  C      590.955     -98.499    -108.587
  C      590.463     -98.965    -107.357
  N      590.545    -100.276    -106.949
  N      591.604     -99.121    -109.639
  C      591.838     -98.156    -110.515
  N      591.391     -96.942    -110.061
  O      597.588     -96.180    -111.627
  O      596.107     -97.968    -110.426
  H      592.319     -93.451    -108.286
  H      595.282     -98.479    -110.534
  H      589.327     -96.106    -106.188
  H      592.330     -98.285    -111.469
  H      590.572     -95.220    -110.845
  H      593.248     -95.294    -109.321
  H      593.954     -93.336    -110.479
  H      592.768     -94.049    -112.952
  H      594.562     -95.671    -113.272
  H      590.150    -100.524    -106.062
  H      590.961    -100.957    -107.572
  H      595.224     -94.239    -112.452
  P      592.617     -91.199    -111.149
  C      592.053     -90.354    -108.770
  O      593.085     -90.708    -109.692
  O      591.758     -90.245    -111.904
  O      594.023     -91.415    -111.893
  H      594.165     -90.672    -112.519
  H      592.492     -90.047    -107.844
  H      591.420     -91.200    -108.601
  H      591.474     -89.550    -109.174

 6  7  8  9  10  11  12  13  14  15  25  28  32  33  34  35 0
 6-311+G(2d,p)
 ****
 36  39  40 0
 6-311+G(2d,p)
 ****
 1  2  3  4  5  16  17  18  19  20  21  22  23  24 0
 3-21G
 ****
 26  27  29  30  31  37  38  41  42  43  44  45  46  47 0
 3-21G
 ****
 48 0
 3-21G
 ****


