%nproc=1
%NoSave
%Mem=1900MB
#P OB98/GEN NMR

erre ene a

0 1
  C       20.099    -126.617    -379.417
  O       19.338    -126.151    -380.539
  P       19.485    -126.936    -381.928
  C       18.175    -129.180    -381.791
  O       18.162    -127.810    -382.166
  C       17.976    -130.073    -383.019
  O       18.319    -131.447    -382.743
  C       16.541    -130.110    -383.524
  O       16.246    -128.986    -384.340
  C       16.553    -131.381    -384.359
  O       17.147    -131.114    -385.645
  C       17.462    -132.300    -383.537
  N       16.412    -137.195    -382.453
  C       17.148    -136.627    -383.434
  N       17.364    -135.317    -383.669
  C       16.744    -134.561    -382.748
  C       15.961    -134.997    -381.693
  C       15.801    -136.386    -381.558
  N       15.053    -136.961    -380.556
  N       15.478    -133.928    -380.966
  C       15.975    -132.865    -381.564
  N       16.738    -133.195    -382.651
  O       20.599    -128.039    -381.603
  O       19.892    -126.069    -383.072
  H       17.252    -131.972    -386.094
  H       21.147    -128.198    -382.393
  H       17.625    -137.316    -384.124
  H       15.813    -131.843    -381.247
  H       18.108    -132.922    -384.168
  H       15.548    -131.769    -384.549
  H       15.835    -130.213    -382.690
  H       18.636    -129.706    -383.816
  H       17.391    -129.376    -381.053
  H       15.006    -137.964    -380.505
  H       14.612    -136.359    -379.871
  H       19.125    -129.405    -381.295
  P       15.068    -128.011    -383.852
  C       16.578    -125.903    -383.703
  O       15.490    -126.546    -384.337
  O       15.273    -127.971    -382.263
  O       13.698    -128.463    -384.228
  H       14.413    -127.834    -381.820
  H       16.915    -125.079    -384.337
  H       17.411    -126.594    -383.556
  H       16.258    -125.499    -382.739
  H       19.898    -125.998    -378.568
  H       21.142    -126.574    -379.651
  H       19.825    -127.627    -379.195

 3  4  5  6  7  8  9  10  11  12  22  25  29  30  31  32 0
 6-311+G(2d,p)
 ****
 33  36  37 0
 6-311+G(2d,p)
 ****
 1  2  13  14  15  16  17  18  19  20  21  23  24  26 0
 3-21G
 ****
 27  28  34  35  38  39  40  41  42  43  44  45  46  47  48 0
 3-21G
 ****


