%nproc=1
%NoSave
%Mem=1900MB
#P OB98/GEN NMR

erre ene a

0 1
  C      -10.281      13.914       9.563
  O       -8.891      13.761       9.771
  H      -10.532      14.975       9.634
  H      -10.829      13.371      10.337
  H      -10.570      13.549       8.574
  P       -8.254      12.339       9.387
  C       -8.599      11.388      11.777
  O       -8.896      11.266      10.394
  C       -9.496      10.464      12.594
  O      -10.885      10.794      12.382
  C       -9.349       8.985      12.255
  O       -8.248       8.399      12.936
  C      -10.667       8.443      12.783
  O      -10.605       8.330      14.221
  C      -11.649       9.555      12.388
  N      -15.098       6.953       9.734
  C      -14.692       6.803      11.045
  N      -15.284       5.813      11.747
  N      -13.785       7.550      11.618
  C      -13.261       8.484      10.789
  C      -13.576       8.726       9.471
  C      -14.591       7.903       8.856
  O      -14.994       8.003       7.700
  N      -12.834       9.756       8.957
  C      -12.056      10.122       9.955
  N      -12.274       9.379      11.089
  O       -6.741      12.482       9.896
  O       -8.309      11.987       7.939
  H       -9.827       7.782      14.431
  H       -6.165      12.651       9.126
  H      -15.792       6.344       9.339
  H      -11.328      10.920       9.912
  H      -12.458       9.672      13.117
  H      -10.899       7.449      12.397
  H      -15.973       5.187      11.361
  H       -9.291       8.820      11.173
  H      -15.004       5.687      12.712
  H       -9.278      10.640      13.656
  H       -8.764      12.425      12.087
  H       -7.548      11.128      11.939
  P       -7.173       7.577      12.074
  C       -8.594       5.416      12.255
  O       -7.957       6.350      11.396
  O       -6.283       6.875      13.203
  O       -6.337       8.396      11.153
  H       -5.385       7.262      13.208
  H       -9.072       4.660      11.668
  H       -9.326       5.921      12.851
  H       -7.864       4.963      12.894

 6  7  8  9  10  11  12  13  14  15  26  29  33  34 0
 6-311+G(2d,p)
 ****
 36  38  39  40  41 0
 6-311+G(2d,p)
 ****
 1  2  3  4  5  16  17  18  19  20  21  22  23  24  25 0
 3-21G
 ****
 27  28  30  31  32  35  37  42  43  44  45  46  47 0
 3-21G
 ****
 48  49 0
 3-21G
 ****


