%nproc=1
%NoSave
%Mem=1900MB
#P OB98/GEN NMR

erre ene a

0 1
  C     -384.504     105.720      91.308
  O     -383.790     105.623      92.549
  P     -382.195     105.731      92.661
  C     -381.886     103.323      91.758
  O     -381.548     104.697      91.614
  C     -380.731     102.422      91.305
  O     -379.514     102.787      91.999
  C     -380.904     100.944      91.600
  O     -381.849     100.326      90.742
  C     -379.471     100.437      91.427
  O     -379.178     100.163      90.051
  C     -378.638     101.641      91.913
  N     -377.974     101.390      93.185
  C     -376.923     100.465      93.174
  O     -376.652      99.845      92.144
  N     -376.221     100.257      94.337
  C     -376.603     100.839      95.432
  N     -375.858     100.607      96.547
  C     -377.789     101.713      95.514
  C     -378.418     101.944      94.364
  O     -381.669     105.579      94.053
  O     -381.823     107.172      92.062
  H     -380.985     107.483      92.452
  H     -378.275      99.789      90.023
  H     -378.096     102.144      96.461
  H     -379.293     102.589      94.332
  H     -377.887     101.904      91.164
  H     -379.294      99.515      91.987
  H     -381.211     100.816      92.648
  H     -380.578     102.588      90.226
  H     -375.046     100.011      96.456
  H     -382.763     103.117      91.126
  H     -376.053     101.030      97.445
  H     -382.153     103.124      92.800
  P     -383.368     100.273      91.256
  C     -383.742      97.977      92.413
  O     -383.406      99.346      92.562
  O     -384.109      99.392      90.137
  O     -384.017     101.605      91.414
  H     -384.998      99.758      89.974
  H     -383.272      97.410      93.226
  H     -383.398      97.580      91.455
  H     -384.830      97.860      92.485
  H     -385.553     105.618      91.491
  H     -384.180     104.943      90.648
  H     -384.312     106.672      90.859

 3  4  5  6  7  8  9  10  11  12  13  24  27  28  29  30  32 0
 6-311+G(2d,p)
 ****
 34  35 0
 6-311+G(2d,p)
 ****
 1  2  14  15  16  17  18  19  20  21  22  23  25  26 0
 3-21G
 ****
 31  33  36  37  38  39  40  41  42  43  44  45  46 0
 3-21G
 ****


