%nproc=1
%NoSave
%Mem=1900MB
#P OB98/GEN NMR

erre ene a

0 1
  C      327.754    -467.388    -175.030
  O      328.831    -466.565    -174.631
  P      328.804    -464.996    -174.956
  C      326.984    -464.266    -173.232
  O      327.332    -464.469    -174.588
  C      326.687    -462.784    -172.955
  O      325.793    -462.312    -173.989
  C      325.978    -462.518    -171.635
  O      326.130    -461.139    -171.304
  C      324.527    -462.787    -171.993
  O      323.616    -462.180    -171.077
  C      324.447    -462.274    -173.458
  N      323.545    -463.108    -174.277
  C      322.673    -462.438    -175.132
  O      322.682    -461.214    -175.273
  N      321.728    -463.215    -175.751
  C      321.561    -464.558    -175.556
  O      320.551    -465.172    -175.859
  C      322.647    -465.234    -174.836
  C      323.566    -464.490    -174.215
  O      328.837    -464.963    -176.550
  O      329.923    -464.209    -174.358
  H      323.762    -461.210    -171.142
  H      329.751    -464.827    -176.873
  H      321.003    -462.708    -176.254
  H      322.634    -466.322    -174.788
  H      324.356    -464.966    -173.631
  H      324.079    -461.239    -173.492
  H      324.351    -463.872    -171.970
  H      326.313    -463.149    -170.798
  H      327.617    -462.212    -173.021
  H      327.796    -464.626    -172.597
  H      326.100    -464.865    -172.979
  P      326.231    -460.734    -169.753
  C      328.787    -460.907    -169.524
  O      327.533    -461.470    -169.177
  O      324.980    -460.920    -168.947
  O      326.680    -459.201    -169.805
  H      326.486    -458.765    -168.951
  H      329.503    -461.114    -168.724
  H      328.708    -459.817    -169.656
  H      329.138    -461.360    -170.447
  H      327.946    -468.397    -174.730
  H      327.648    -467.346    -176.094
  H      326.852    -467.044    -174.568

 3  4  5  6  7  8  9  10  11  12  13  23  28  29  30  31  32 0
 6-311+G(2d,p)
 ****
 33  34 0
 6-311+G(2d,p)
 ****
 1  2  14  15  16  17  18  19  20  21  22  24  25  26  27 0
 3-21G
 ****
 35  36  37  38  39  40  41  42  43  44  45 0
 3-21G
 ****


