%nproc=1
%NoSave
%Mem=1900MB
#P OB98/GEN NMR

erre ene a

0 1
  C     -174.707    -544.401    -215.419
  O     -174.599    -545.476    -216.326
  H     -175.585    -543.806    -215.679
  H     -173.822    -543.755    -215.483
  H     -174.818    -544.778    -214.398
  P     -173.341    -546.452    -216.146
  C     -174.763    -548.244    -214.973
  O     -173.693    -547.320    -214.843
  C     -174.240    -549.692    -214.898
  O     -173.496    -549.967    -216.110
  C     -173.322    -549.938    -213.706
  O     -173.559    -551.244    -213.187
  C     -171.932    -549.888    -214.317
  O     -170.977    -550.639    -213.561
  C     -172.183    -550.429    -215.720
  N     -167.181    -550.356    -216.744
  C     -167.906    -551.013    -215.799
  N     -169.248    -550.981    -215.626
  C     -169.834    -550.218    -216.545
  C     -169.242    -549.483    -217.546
  C     -167.836    -549.568    -217.637
  N     -167.091    -548.890    -218.560
  N     -170.197    -548.783    -218.291
  C     -171.347    -549.110    -217.734
  N     -171.182    -549.956    -216.675
  O     -172.003    -545.779    -216.125
  O     -173.563    -547.503    -217.334
  H     -171.339    -551.528    -213.394
  H     -174.491    -547.780    -217.394
  H     -167.347    -551.634    -215.116
  H     -172.321    -548.755    -218.051
  H     -172.181    -551.528    -215.765
  H     -171.575    -548.840    -214.362
  H     -173.445    -549.198    -212.910
  H     -175.112    -550.375    -214.889
  H     -175.291    -548.094    -215.931
  H     -166.084    -549.016    -218.550
  H     -167.564    -548.310    -219.248
  H     -175.467    -548.052    -214.157
  P     -174.335    -551.374    -211.784
  C     -176.466    -551.918    -213.137
  O     -175.913    -551.192    -212.043
  O     -173.773    -550.576    -210.652
  O     -174.218    -552.949    -211.472
  H     -174.084    -553.088    -210.519
  H     -177.514    -551.716    -213.206
  H     -176.314    -552.966    -212.983
  H     -175.985    -551.618    -214.044

 6  7  8  9  10  11  12  13  14  15  25  28  32  33  34  35 0
 6-311+G(2d,p)
 ****
 36  39  40 0
 6-311+G(2d,p)
 ****
 1  2  3  4  5  16  17  18  19  20  21  22  23  24 0
 3-21G
 ****
 26  27  29  30  31  37  38  41  42  43  44  45  46  47 0
 3-21G
 ****
 48 0
 3-21G
 ****


