%nproc=1
%NoSave
%Mem=1900MB
#P OB98/GEN NMR

erre ene a

0 1
  C      172.466     417.697    -376.460
  O      171.567     417.663    -375.372
  H      173.024     416.757    -376.485
  H      173.175     418.520    -376.354
  H      171.914     417.799    -377.401
  P      170.737     418.984    -375.013
  C      172.124     420.246    -373.247
  O      171.815     420.110    -374.629
  C      172.962     421.501    -372.998
  O      172.124     422.668    -373.221
  C      173.535     421.587    -371.580
  O      174.843     422.160    -371.653
  C      172.575     422.535    -370.891
  O      173.179     423.165    -369.775
  C      172.173     423.479    -372.031
  N      170.888     424.124    -371.756
  C      170.904     425.180    -370.838
  O      171.967     425.534    -370.318
  N      169.719     425.768    -370.483
  C      168.605     425.303    -370.950
  N      167.462     425.907    -370.526
  C      168.533     424.174    -371.899
  C      169.702     423.637    -372.256
  O      169.629     418.818    -374.027
  O      170.185     419.479    -376.434
  H      172.637     423.939    -369.508
  H      169.306     419.089    -376.607
  H      167.581     423.822    -372.257
  H      169.747     422.796    -372.939
  H      172.932     424.255    -372.181
  H      171.699     421.980    -370.534
  H      173.581     420.616    -371.076
  H      173.764     421.539    -373.749
  H      167.558     426.661    -369.855
  H      172.690     419.357    -372.941
  H      166.534     425.606    -370.785
  H      171.199     420.290    -372.663
  P      176.151     421.233    -371.578
  C      176.004     421.027    -369.032
  O      176.063     420.313    -370.263
  O      177.444     421.962    -371.744
  O      175.939     420.182    -372.776
  H      176.811     419.910    -373.118
  H      175.948     420.333    -368.220
  H      175.138     421.655    -369.025
  H      176.882     421.629    -368.927

 6  7  8  9  10  11  12  13  14  15  16  26  30  31  32  33  35 0
 6-311+G(2d,p)
 ****
 37  38 0
 6-311+G(2d,p)
 ****
 1  2  3  4  5  17  18  19  20  21  22  23  24  25 0
 3-21G
 ****
 27  28  29  34  36  39  40  41  42  43  44  45  46 0
 3-21G
 ****


