%nproc=1
%NoSave
%Mem=1900MB
#P OB98/GEN NMR

erre ene a

0 1
  C     -320.655    -118.981     182.890
  O     -320.011    -119.868     183.783
  H     -321.420    -119.532     182.340
  H     -319.933    -118.573     182.178
  H     -321.133    -118.167     183.443
  P     -318.858    -119.244     184.708
  C     -316.827    -119.820     183.191
  O     -317.526    -120.084     184.400
  C     -315.763    -120.891     182.967
  O     -314.904    -120.972     184.128
  C     -316.328    -122.292     182.782
  O     -316.833    -122.501     181.476
  C     -315.112    -123.144     183.107
  O     -314.247    -123.279     181.972
  C     -314.421    -122.333     184.209
  N     -312.382    -123.206     188.807
  C     -311.908    -122.566     187.717
  N     -312.519    -122.367     186.530
  C     -313.762    -122.880     186.546
  C     -314.383    -123.553     187.584
  C     -313.639    -123.711     188.765
  N     -314.112    -124.383     189.866
  N     -315.646    -123.966     187.208
  C     -315.789    -123.544     185.970
  N     -314.679    -122.877     185.528
  O     -319.277    -119.720     186.178
  O     -318.710    -117.762     184.623
  H     -314.805    -123.608     181.240
  H     -319.724    -118.987     186.642
  H     -310.898    -122.174     187.803
  H     -316.665    -123.697     185.352
  H     -313.332    -122.299     184.079
  H     -315.410    -124.144     183.418
  H     -317.105    -122.487     183.532
  H     -315.147    -120.601     182.105
  H     -316.343    -118.839     183.256
  H     -317.542    -119.808     182.361
  H     -313.499    -124.517     190.654
  H     -315.001    -124.861     189.804
  P     -318.413    -122.716     181.313
  C     -318.292    -125.051     180.161
  O     -318.635    -123.676     180.051
  O     -318.943    -121.293     180.806
  O     -319.111    -123.156     182.556
  H     -319.825    -121.112     181.183
  H     -318.501    -125.546     179.236
  H     -318.867    -125.500     180.944
  H     -317.250    -125.142     180.386

 6  7  8  9  10  11  12  13  14  15  25  28  32  33  34  35 0
 6-311+G(2d,p)
 ****
 36  37  40 0
 6-311+G(2d,p)
 ****
 1  2  3  4  5  16  17  18  19  20  21  22  23  24 0
 3-21G
 ****
 26  27  29  30  31  38  39 41  42  43  44  45  46  47  48 0
 3-21G
 ****


