%nproc=1
%NoSave
%Mem=1900MB
#P OB98/GEN NMR

erre ene a

0 1
  C      134.055      62.614      53.994
  O      132.796      62.058      53.675
  H      134.222      62.511      55.068
  H      134.072      63.677      53.738
  H      134.856      62.091      53.465
  P      132.390      61.896      52.132
  C      131.492      64.314      52.214
  O      132.303      63.375      51.518
  C      131.472      65.642      51.462
  O      132.813      66.154      51.317
  C      130.911      65.544      50.045
  O      129.498      65.442      50.069
  C      131.450      66.835      49.441
  O      130.644      67.957      49.826
  C      132.854      66.913      50.085
  N      133.919      66.432      49.210
  C      134.766      67.397      48.673
  O      134.622      68.603      48.877
  N      135.779      66.930      47.872
  C      135.968      65.631      47.498
  O      136.860      65.271      46.735
  C      135.023      64.657      48.069
  C      134.060      65.094      48.882
  O      131.202      61.033      51.860
  O      133.714      61.304      51.454
  H      131.195      68.755      49.690
  H      133.619      60.340      51.331
  H      136.392      67.619      47.466
  H      135.139      63.619      47.787
  H      133.349      64.394      49.308
  H      133.085      67.950      50.364
  H      131.459      66.812      48.348
  H      131.357      64.694      49.517
  H      130.898      66.366      52.060
  H      131.913      64.469      53.215
  H      130.482      63.907      52.311
  P      128.734      64.475      49.051
  C      128.708      66.300      47.250
  O      129.085      64.966      47.559
  O      127.275      64.293      49.315
  O      129.521      63.084      49.168
  H      128.981      62.439      49.669
  H      128.985      66.524      46.241
  H      129.206      66.974      47.915
  H      127.649      66.406      47.361

 6  7  8  9  10  11  12  13  14  15  16  26  31  32  33  34  35 0
 6-311+G(2d,p)
 ****
 36  37 0
 6-311+G(2d,p)
 ****
 1  2  3  4  5  17  18  19  20  21  22  23  24  25 0
 3-21G
 ****
 27  28  29  30  38  39  40  41  42  43  44  45 0
 3-21G
 ****


