%nproc=1
%NoSave
%Mem=1900MB
#P OB98/GEN NMR

erre ene a

0 1
  C      112.115    -788.607    -854.906
  O      112.540    -788.201    -856.190
  H      112.190    -789.694    -854.805
  H      112.757    -788.139    -854.158
  H      111.082    -788.282    -854.736
  P      111.787    -788.869    -857.431
  C      109.895    -787.170    -857.983
  O      111.192    -787.654    -858.319
  C      109.610    -785.876    -858.741
  O      110.444    -784.808    -858.244
  C      109.885    -785.936    -860.243
  O      108.847    -786.590    -860.952
  C      109.945    -784.452    -860.574
  O      108.618    -783.924    -860.702
  C      110.627    -783.852    -859.318
  N      114.152    -780.426    -860.770
  C      112.800    -780.359    -860.720
  N      111.934    -781.307    -860.337
  C      112.580    -782.441    -859.943
  C      113.947    -782.637    -859.957
  C      114.759    -781.582    -860.402
  N      116.135    -781.654    -860.459
  N      114.248    -783.904    -859.487
  C      113.084    -784.455    -859.228
  N      112.043    -783.604    -859.497
  O      110.469    -789.520    -856.776
  O      112.566    -789.896    -858.189
  H      108.207    -783.973    -859.818
  H      110.264    -790.357    -857.233
  H      112.364    -779.409    -861.011
  H      112.945    -785.453    -858.813
  H      110.136    -782.914    -859.007
  H      110.473    -784.244    -861.500
  H      110.858    -786.401    -860.440
  H      108.555    -785.611    -858.545
  H      109.847    -786.970    -856.905
  H      116.663    -780.814    -860.580
  H      116.570    -782.525    -860.166
  H      109.152    -787.930    -858.228
  P      109.220    -787.333    -862.324
  C      110.871    -789.036    -861.241
  O      109.628    -788.833    -861.919
  O      110.629    -786.665    -862.705
  O      108.216    -787.186    -863.408
  H      110.776    -786.709    -863.678
  H      111.001    -790.079    -861.040
  H      110.867    -788.493    -860.319
  H      111.674    -788.688    -861.857

 6  7  8  9  10  11  12  13  14  15  25  28  32  33  34  35 0
 6-311+G(2d,p)
 ****
 36  39  40 0
 6-311+G(2d,p)
 ****
 1  2  3  4  5  16  17  18  19  20  21  22  23  24 0
 3-21G
 ****
 26  27  29  30  31  37  38  41  42  43  44  45  46  47  48 0
 3-21G
 ****


