%nproc=1
%NoSave
%Mem=1900MB
#P OB98/GEN NMR

erre ene a

0 1
  C      266.439    -291.134    -230.582
  O      267.030    -291.480    -229.346
  H      266.907    -290.218    -230.950
  H      265.371    -290.954    -230.445
  H      266.592    -291.930    -231.315
  P      266.549    -292.854    -228.672
  C      268.952    -292.677    -227.714
  O      267.649    -293.227    -227.562
  C      269.668    -292.610    -226.368
  O      269.005    -291.616    -225.529
  C      269.677    -293.934    -225.589
  O      270.921    -294.023    -224.879
  C      268.566    -293.736    -224.571
  O      268.698    -294.596    -223.440
  C      268.744    -292.251    -224.262
  N      266.568    -291.511    -219.786
  C      267.786    -292.074    -220.109
  N      268.546    -292.505    -219.079
  N      268.224    -292.200    -221.332
  C      267.374    -291.691    -222.260
  C      266.142    -291.118    -222.072
  C      265.657    -291.008    -220.711
  O      264.578    -290.540    -220.365
  N      265.580    -290.757    -223.271
  C      266.471    -291.112    -224.179
  N      267.578    -291.684    -223.614
  O      266.807    -293.924    -229.833
  O      265.134    -292.872    -228.197
  H      268.795    -295.514    -223.772
  H      265.995    -294.052    -230.361
  H      266.274    -291.451    -218.828
  H      266.364    -290.981    -225.246
  H      269.597    -292.061    -223.601
  H      267.591    -293.925    -225.035
  H      268.297    -292.400    -218.110
  H      269.542    -294.824    -226.208
  H      269.464    -292.883    -219.295
  H      270.692    -292.247    -226.535
  H      268.865    -291.665    -228.128
  H      269.525    -293.298    -228.412
  P      271.806    -295.342    -225.073
  C      273.858    -293.932    -225.821
  O      273.349    -294.930    -224.952
  O      271.646    -295.652    -226.639
  O      271.374    -296.501    -224.236
  H      271.751    -296.607    -226.800
  H      274.896    -293.774    -225.614
  H      273.321    -293.019    -225.669
  H      273.741    -294.250    -226.836

 6  7  8  9  10  11  12  13  14  15  26  29  33  34 0
 6-311+G(2d,p)
 ****
 36  38  39  40  41 0
 6-311+G(2d,p)
 ****
 1  2  3  4  5  16  17  18  19  20  21  22  23  24  25 0
 3-21G
 ****
 27  28  30  31  32  35  37  42  43  44  45  46  47 0
 3-21G
 ****
 48  49 0
 3-21G
 ****


