%nproc=1
%NoSave
%Mem=1900MB
#P OB98/GEN NMR

erre ene a

0 1
  C     -721.392     671.519     266.747
  O     -721.542     672.653     265.913
  H     -722.379     671.220     267.111
  H     -720.756     671.749     267.606
  H     -720.963     670.688     266.176
  P     -720.212     673.438     265.465
  C     -720.624     675.304     267.207
  O     -719.748     674.272     266.758
  C     -719.856     676.389     267.970
  O     -719.499     675.903     269.278
  C     -718.542     676.794     267.312
  O     -718.699     677.495     266.101
  C     -717.779     677.432     268.467
  O     -718.078     678.810     268.654
  C     -718.303     676.621     269.686
  N     -717.294     675.713     270.217
  C     -716.655     676.143     271.376
  O     -716.889     677.220     271.932
  N     -715.685     675.309     271.873
  C     -715.278     674.133     271.301
  O     -714.371     673.447     271.776
  C     -715.962     673.750     270.059
  C     -716.922     674.553     269.582
  O     -720.340     674.276     264.218
  O     -719.112     672.288     265.359
  H     -717.672     679.293     267.909
  H     -718.323     672.595     264.836
  H     -715.221     675.596     272.721
  H     -715.654     672.823     269.578
  H     -717.449     674.279     268.665
  H     -718.607     677.296     270.491
  H     -716.703     677.349     268.329
  H     -717.993     675.874     267.056
  H     -720.517     677.260     268.099
  H     -721.368     674.853     267.877
  H     -721.145     675.747     266.342
  P     -717.526     677.648     265.019
  C     -717.788     680.235     264.885
  O     -716.919     679.138     265.134
  O     -717.787     677.086     263.652
  O     -716.358     676.756     265.699
  H     -715.858     676.340     264.975
  H     -717.247     681.151     264.998
  H     -718.600     680.212     265.581
  H     -718.171     680.168     263.888

 6  7  8  9  10  11  12  13  14  15  16  26  31  32  33  34  35 0
 6-311+G(2d,p)
 ****
 36  37 0
 6-311+G(2d,p)
 ****
 1  2  3  4  5  17  18  19  20  21  22  23  24  25 0
 3-21G
 ****
 27  28  29  30  38  39  40  41  42  43  44  45 0
 3-21G
 ****


