%nproc=1
%NoSave
%Mem=1900MB
#P OB98/GEN NMR

erre ene a

0 1
  C      -51.070     -10.032      63.448
  O      -50.088      -9.017      63.507
  H      -50.597     -11.017      63.456
  H      -51.719      -9.948      64.324
  H      -51.678      -9.918      62.545
  P      -49.006      -8.988      62.322
  C      -47.189      -9.931      63.928
  O      -47.918     -10.100      62.721
  C      -46.765     -11.298      64.456
  O      -47.929     -12.128      64.673
  C      -45.872     -12.077      63.498
  O      -44.512     -11.687      63.581
  C      -46.071     -13.492      64.014
  O      -45.306     -13.684      65.217
  C      -47.575     -13.497      64.332
  N      -51.016     -16.957      62.781
  C      -50.422     -16.748      63.977
  N      -49.533     -15.792      64.313
  C      -49.276     -14.991      63.268
  C      -49.809     -15.076      61.991
  C      -50.719     -16.121      61.758
  N      -51.302     -16.357      60.533
  N      -49.286     -14.087      61.180
  C      -48.469     -13.409      61.960
  N      -48.403     -13.937      63.221
  O      -48.219      -7.614      62.558
  O      -49.549      -9.122      60.939
  H      -45.543     -14.563      65.569
  H      -47.690      -7.386      61.770
  H      -50.695     -17.443      64.765
  H      -47.897     -12.542      61.657
  H      -47.822     -14.129      65.193
  H      -45.744     -14.252      63.300
  H      -46.240     -12.019      62.467
  H      -46.273     -11.156      65.427
  H      -47.827      -9.433      64.665
  H      -51.821     -17.214      60.428
  H      -50.976     -15.835      59.732
  H      -46.307      -9.311      63.738
  P      -43.647     -11.723      62.227
  C      -42.503     -13.956      62.901
  O      -43.305     -13.267      61.950
  O      -42.243     -11.110      62.685
  O      -44.249     -10.973      61.084
  H      -41.822     -10.620      61.953
  H      -42.362     -14.968      62.582
  H      -42.991     -13.947      63.853
  H      -41.552     -13.472      62.983

 6  7  8  9  10  11  12  13  14  15  25  28  32  33  34  35 0
 6-311+G(2d,p)
 ****
 36  39  40 0
 6-311+G(2d,p)
 ****
 1  2  3  4  5  16  17  18  19  20  21  22  23  24 0
 3-21G
 ****
 26  27  29  30  31  37  38  41  42  43  44  45  46  47 0
 3-21G
 ****
 48 0
 3-21G
 ****


