%nproc=1
%NoSave
%Mem=1900MB
#P OB98/GEN NMR

erre ene a

0 1
  C      123.076     -40.612      46.135
  O      121.667     -40.505      46.169
  H      123.495     -39.965      46.910
  H      123.446     -40.280      45.162
  H      123.394     -41.641      46.325
  P      120.838     -41.607      45.348
  C      120.716     -39.993      43.319
  O      121.068     -41.285      43.792
  C      121.027     -39.873      41.830
  O      122.450     -39.960      41.604
  C      120.387     -40.954      40.965
  O      119.042     -40.634      40.637
  C      121.278     -40.894      39.736
  O      120.919     -39.750      38.931
  C      122.665     -40.680      40.357
  N      127.104     -43.086      39.886
  C      126.711     -41.850      39.409
  N      127.630     -41.162      38.698
  N      125.525     -41.337      39.604
  C      124.702     -42.147      40.312
  C      124.974     -43.393      40.832
  C      126.294     -43.941      40.622
  O      126.695     -45.027      41.033
  N      123.890     -43.912      41.489
  C      122.958     -42.992      41.349
  N      123.399     -41.902      40.639
  O      119.318     -41.170      45.607
  O      121.074     -43.020      45.762
  H      121.651     -39.600      38.306
  H      118.930     -41.762      46.279
  H      128.027     -43.439      39.698
  H      121.954     -43.061      41.745
  H      123.312     -40.059      39.727
  H      121.176     -41.774      39.098
  H      128.554     -41.508      38.491
  H      120.467     -41.945      41.429
  H      127.364     -40.252      38.341
  H      120.705     -38.875      41.501
  H      121.289     -39.242      43.873
  H      119.648     -39.830      43.492
  P      118.025     -41.840      40.347
  C      118.966     -41.992      37.935
  O      118.640     -42.689      39.129
  O      116.774     -41.091      39.686
  O      117.617     -42.631      41.541
  H      116.008     -41.124      40.292
  H      119.362     -42.680      37.217
  H      119.696     -41.240      38.149
  H      118.085     -41.531      37.539

 6  7  8  9  10  11  12  13  14  15  26  29  33  34 0
 6-311+G(2d,p)
 ****
 36  38  39  40  41 0
 6-311+G(2d,p)
 ****
 1  2  3  4  5  16  17  18  19  20  21  22  23  24  25 0
 3-21G
 ****
 27  28  30  31  32  35  37  42  43  44  45  46  47 0
 3-21G
 ****
 48  49 0
 3-21G
 ****


