%nproc=1
%NoSave
%Mem=1900MB
#P OB98/GEN NMR

erre ene a

0 1
  C      262.909    -170.404    -480.294
  O      264.218    -170.857    -480.571
  H      262.176    -171.167    -480.570
  H      262.824    -170.201    -479.224
  H      262.708    -169.480    -480.846
  P      264.511    -171.313    -482.085
  C      266.853    -170.298    -481.624
  O      266.111    -171.335    -482.250
  C      268.040    -169.900    -482.502
  O      267.589    -169.656    -483.860
  C      268.745    -168.622    -482.079
  O      269.633    -168.842    -480.979
  C      269.508    -168.284    -483.358
  O      270.705    -169.080    -483.429
  C      268.524    -168.709    -484.446
  N      267.379    -166.153    -488.753
  C      268.178    -167.220    -488.527
  N      268.439    -167.846    -487.352
  C      267.769    -167.261    -486.347
  C      266.924    -166.161    -486.431
  C      266.741    -165.594    -487.699
  N      265.935    -164.495    -487.921
  N      266.405    -165.853    -485.188
  C      266.927    -166.740    -484.362
  N      267.772    -167.619    -485.025
  O      264.068    -170.037    -482.951
  O      263.802    -172.544    -482.525
  H      271.192    -168.925    -482.597
  H      263.677    -170.342    -483.788
  H      268.662    -167.647    -489.404
  H      266.728    -166.800    -483.303
  H      269.037    -169.241    -485.261
  H      269.807    -167.230    -483.404
  H      268.027    -167.826    -481.853
  H      268.743    -170.746    -482.527
  H      267.236    -170.657    -480.660
  H      265.688    -164.260    -488.864
  H      265.460    -164.087    -487.116
  H      266.196    -169.446    -481.455
  P      269.456    -167.910    -479.696
  C      271.105    -169.563    -478.566
  O      270.733    -168.197    -478.761
  O      268.240    -168.595    -478.896
  O      269.174    -166.463    -479.984
  H      267.793    -167.933    -478.341
  H      271.963    -169.611    -477.929
  H      271.337    -170.008    -479.511
  H      270.293    -170.092    -478.112

 6  7  8  9  10  11  12  13  14  15  25  28  32  33  34  35 0
 6-311+G(2d,p)
 ****
 36  39  40 0
 6-311+G(2d,p)
 ****
 1  2  3  4  5  16  17  18  19  20  21  22  23  24 0
 3-21G
 ****
 26  27  29  30  31  37  38  41  42  43  44  45  46  47  48 0
 3-21G
 ****


