%nproc=1
%NoSave
%Mem=1900MB
#P OB98/GEN NMR

erre ene a

0 1
  C      474.529     231.413     -45.014
  O      474.820     232.123     -46.217
  P      476.305     232.029     -46.815
  C      475.998     230.724     -49.042
  O      476.202     231.985     -48.410
  C      476.403     230.794     -50.517
  O      475.473     231.586     -51.295
  C      477.776     231.420     -50.742
  O      478.824     230.477     -50.553
  C      477.685     231.804     -52.211
  O      477.926     230.648     -53.036
  C      476.226     232.259     -52.336
  N      476.646     236.709     -54.710
  C      476.890     235.428     -55.169
  N      477.288     235.316     -56.457
  N      476.742     234.351     -54.444
  C      476.319     234.621     -53.184
  C      476.044     235.842     -52.609
  C      476.229     237.024     -53.426
  O      476.040     238.186     -53.067
  N      475.639     235.707     -51.308
  C      475.650     234.401     -51.093
  N      476.064     233.698     -52.195
  O      476.741     230.537     -46.439
  O      477.254     233.041     -46.254
  H      477.795     230.932     -53.961
  H      477.713     230.487     -46.338
  H      476.779     237.500     -55.315
  H      475.349     233.924     -50.168
  H      475.779     231.974     -53.297
  H      478.428     232.552     -52.493
  H      477.376     236.092     -57.090
  H      477.913     232.320     -50.127
  H      477.440     234.380     -56.823
  H      476.408     229.768     -50.919
  H      474.950     230.424     -48.964
  H      476.565     229.959     -48.505
  P      480.232     231.017     -50.000
  C      481.228     228.803     -49.074
  O      481.246     229.779     -50.102
  O      479.953     231.174     -48.430
  O      480.693     232.296     -50.609
  H      480.490     231.904     -48.069
  H      481.860     227.961     -49.387
  H      480.210     228.432     -48.912
  H      481.628     229.220     -48.146
  H      473.506     231.573     -44.744
  H      475.165     231.766     -44.229
  H      474.698     230.368     -45.167

 3  4  5  6  7  8  9  10  11  12  23  26  30  31 0
 6-311+G(2d,p)
 ****
 33  35  36  37  38 0
 6-311+G(2d,p)
 ****
 1  2  13  14  15  16  17  18  19  20  21  22  24  25 0
 3-21G
 ****
 27  28  29  32  34  39  40  41  42  43  44  45  46  47  48  49 0
 3-21G
 ****


