%nproc=1
%NoSave
%Mem=1900MB
#P OB98/GEN NMR

erre ene a

0 1
  C       47.159    -769.203     455.155
  O       47.762    -768.244     455.997
  H       46.774    -768.698     454.268
  H       46.324    -769.685     455.675
  H       47.889    -769.955     454.849
  P       48.422    -768.777     457.365
  C       47.386    -766.909     458.858
  O       48.566    -767.467     458.289
  C       47.711    -765.595     459.572
  O       48.595    -765.869     460.690
  C       48.397    -764.564     458.676
  O       47.834    -763.273     458.918
  C       49.852    -764.604     459.112
  O       50.529    -763.372     458.853
  C       49.735    -764.993     460.590
  N       50.947    -765.646     461.079
  C       51.746    -764.908     461.962
  O       51.419    -763.764     462.286
  N       52.916    -765.461     462.422
  C       53.292    -766.624     461.982
  N       54.473    -767.109     462.454
  C       52.507    -767.415     461.012
  C       51.360    -766.871     460.611
  O       49.923    -769.100     456.933
  O       47.712    -769.920     458.007
  H       50.231    -762.718     459.519
  H       50.391    -769.636     457.621
  H       52.871    -768.372     460.663
  H       50.720    -767.383     459.898
  H       49.538    -764.108     461.209
  H       50.375    -765.394     458.556
  H       48.300    -764.795     457.616
  H       46.783    -765.195     460.006
  H       54.988    -766.531     463.113
  H       46.963    -767.624     459.570
  H       54.875    -767.987     462.161
  H       46.661    -766.719     458.058
  P       46.473    -762.939     458.124
  C       47.221    -761.143     456.416
  O       46.559    -761.413     457.638
  O       45.361    -762.922     459.278
  O       46.160    -763.927     457.047
  H       44.873    -763.766     459.292
  H       47.199    -760.091     456.223
  H       46.727    -761.661     455.621
  H       48.237    -761.473     456.480

 6  7  8  9  10  11  12  13  14  15  16  26  30  31  32  33  35 0
 6-311+G(2d,p)
 ****
 37  38 0
 6-311+G(2d,p)
 ****
 1  2  3  4  5  17  18  19  20  21  22  23  24  25 0
 3-21G
 ****
 27  28  29  34  36  39  40  41  42  43  44  45  46 0
 3-21G
 ****


