%nproc=1
%NoSave
%Mem=1900MB
#P OB98/GEN NMR

erre ene a

0 1
  C      566.586    -452.136      -3.134
  O      565.234    -451.711      -3.270
  P      564.219    -452.107      -2.087
  C      562.493    -450.139      -1.956
  O      562.811    -451.441      -2.461
  C      561.669    -449.373      -2.985
  O      562.531    -448.871      -4.035
  C      560.606    -450.206      -3.686
  O      559.443    -450.294      -2.874
  C      560.387    -449.417      -4.980
  O      559.529    -448.294      -4.749
  C      561.823    -448.956      -5.304
  N      562.146    -450.542     -10.097
  C      561.186    -449.757      -9.484
  N      560.183    -449.292     -10.275
  N      561.203    -449.460      -8.209
  C      562.232    -450.006      -7.536
  C      563.247    -450.807      -8.038
  C      563.241    -451.094      -9.455
  O      564.127    -451.695     -10.065
  N      564.120    -451.192      -7.043
  C      563.654    -450.588      -5.969
  N      562.537    -449.844      -6.216
  O      564.750    -451.244      -0.848
  O      564.151    -453.574      -1.787
  H      558.665    -448.600      -4.402
  H      565.309    -451.797      -0.261
  H      562.093    -450.729     -11.088
  H      564.114    -450.636      -4.984
  H      561.834    -447.952      -5.749
  H      559.929    -450.017      -5.762
  H      560.102    -449.503     -11.262
  H      560.984    -451.208      -3.923
  H      559.478    -448.723      -9.844
  H      561.219    -448.501      -2.481
  H      563.417    -449.602      -1.751
  H      561.931    -450.255      -1.019
  P      558.250    -451.251      -3.389
  C      557.198    -451.489      -1.017
  O      557.035    -451.076      -2.360
  O      558.803    -452.725      -3.079
  O      557.908    -451.089      -4.832
  H      558.511    -453.341      -3.786
  H      556.570    -450.872      -0.375
  H      558.246    -451.400      -0.699
  H      556.893    -452.536      -0.924
  H      567.150    -451.809      -3.983
  H      566.620    -453.204      -3.073
  H      567.005    -451.714      -2.244

 3  4  5  6  7  8  9  10  11  12  23  26  30  31 0
 6-311+G(2d,p)
 ****
 33  35  36  37  38 0
 6-311+G(2d,p)
 ****
 1  2  13  14  15  16  17  18  19  20  21  22  24  25 0
 3-21G
 ****
 27  28  29  32  34  39  40  41  42  43  44  45  46  47  48  49 0
 3-21G
 ****


