%nproc=1
%NoSave
%Mem=1900MB
#P OB98/GEN NMR

erre ene a

0 1
  C     -482.944     531.948     143.529
  O     -483.748     530.988     142.872
  H     -482.515     531.497     144.421
  H     -483.548     532.816     143.822
  H     -482.125     532.280     142.874
  P     -484.495     531.420     141.522
  C     -486.548     532.615     142.537
  O     -486.059     531.456     141.872
  C     -487.858     532.295     143.255
  O     -488.910     532.062     142.311
  C     -487.775     531.044     144.143
  O     -487.167     531.355     145.389
  C     -489.257     530.695     144.269
  O     -489.880     531.591     145.211
  C     -489.764     530.990     142.844
  N     -492.102     526.781     141.261
  C     -492.453     527.667     142.267
  N     -493.559     527.357     142.981
  N     -491.769     528.735     142.566
  C     -490.644     528.881     141.811
  C     -490.187     528.057     140.791
  C     -491.001     526.910     140.434
  O     -490.735     526.107     139.537
  N     -488.986     528.492     140.308
  C     -488.727     529.586     140.986
  N     -489.692     529.862     141.938
  O     -484.164     530.612     140.288
  O     -484.119     532.965     141.338
  H     -489.450     531.441     146.072
  H     -483.333     533.074     140.788
  H     -492.668     525.966     141.095
  H     -487.859     530.220     140.849
  H     -490.794     531.358     142.832
  H     -489.432     529.683     144.611
  H     -493.945     526.418     142.982
  H     -487.271     530.217     143.636
  H     -493.796     527.958     143.759
  H     -488.138     533.168     143.857
  H     -486.725     533.379     141.772
  H     -485.809     532.982     143.255
  P     -486.087     530.366     146.061
  C     -487.704     528.606     147.035
  O     -486.852     529.701     147.299
  O     -484.783     530.987     146.381
  O     -485.981     529.140     145.022
  H     -485.307     529.283     144.314
  H     -488.144     528.268     147.950
  H     -487.138     527.811     146.596
  H     -488.476     528.910     146.359

 6  7  8  9  10  11  12  13  14  15  26  29  33  34 0
 6-311+G(2d,p)
 ****
 36  38  39  40  41 0
 6-311+G(2d,p)
 ****
 1  2  3  4  5  16  17  18  19  20  21  22  23  24  25 0
 3-21G
 ****
 27  28  30  31  32  35  37  42  43  44  45  46  47 0
 3-21G
 ****
 48  49 0
 3-21G
 ****


