%nproc=1
%NoSave
%Mem=1900MB
#P OB98/GEN NMR

erre ene a

0 1
  C       46.449     115.677      15.736
  O       45.884     116.918      16.101
  H       46.259     115.506      14.673
  H       45.986     114.868      16.307
  H       47.529     115.678      15.903
  P       46.133     117.477      17.582
  C       48.246     118.806      16.946
  O       47.708     117.741      17.719
  C       49.666     119.118      17.409
  O       50.304     120.032      16.490
  C       49.736     119.787      18.777
  O       49.509     118.849      19.809
  C       51.140     120.371      18.728
  O       52.127     119.366      19.002
  C       51.232     120.835      17.255
  N       50.955     122.263      17.091
  C       51.908     123.135      17.606
  O       52.929     122.759      18.174
  N       51.621     124.469      17.484
  C       50.460     124.993      16.993
  O       50.153     126.176      17.104
  C       49.526     124.028      16.396
  C       49.804     122.726      16.485
  O       45.527     116.678      18.686
  O       45.526     118.960      17.530
  H       44.644     118.961      17.947
  H       52.998     119.797      18.892
  H       52.282     125.110      17.896
  H       48.622     124.409      15.938
  H       49.114     121.994      16.078
  H       52.232     120.634      16.852
  H       51.283     121.169      19.459
  H       49.013     120.608      18.831
  H       50.240     118.181      17.405
  H       47.616     119.691      17.086
  H       48.234     118.524      15.889
  P       49.066     119.320      21.272
  C       46.576     118.720      21.211
  O       47.530     119.772      21.205
  O       49.975     120.309      21.922
  O       49.003     117.961      22.121
  H       49.547     118.063      22.926
  H       45.590     119.133      21.164
  H       46.681     118.149      22.110
  H       46.739     118.086      20.364

 6  7  8  9  10  11  12  13  14  15  16  27  31  32  33  34  35 0
 6-311+G(2d,p)
 ****
 36  37 0
 6-311+G(2d,p)
 ****
 1  2  3  4  5  17  18  19  20  21  22  23  24  25 0
 3-21G
 ****
 26  28  29  30  38  39  40  41  42  43  44  45 0
 3-21G
 ****


