%nproc=1
%NoSave
%Mem=1900MB
#P OB98/GEN NMR

erre ene a

0 1
  C      -20.314    -118.537     -16.357
  O      -21.218    -118.355     -15.282
  P      -20.944    -117.218     -14.189
  C      -22.559    -115.344     -14.997
  O      -21.231    -115.809     -14.898
  C      -22.667    -113.879     -14.557
  O      -23.981    -113.398     -14.933
  C      -22.555    -113.652     -13.053
  O      -22.253    -112.274     -12.823
  C      -23.963    -113.948     -12.588
  O      -24.240    -113.381     -11.311
  C      -24.824    -113.403     -13.757
  N      -26.017    -114.238     -13.985
  C      -27.206    -113.807     -13.404
  O      -27.306    -112.745     -12.792
  N      -28.257    -114.679     -13.478
  C      -28.209    -115.928     -14.023
  O      -29.044    -116.799     -13.813
  C      -27.010    -116.224     -14.824
  C      -25.971    -115.389     -14.748
  O      -19.352    -117.250     -14.036
  O      -21.632    -117.422     -12.884
  H      -24.158    -112.404     -11.409
  H      -19.098    -117.796     -13.268
  H      -29.074    -114.430     -12.933
  H      -26.993    -117.142     -15.396
  H      -25.054    -115.609     -15.286
  H      -25.161    -112.378     -13.561
  H      -24.091    -115.034     -12.503
  H      -21.818    -114.289     -12.556
  H      -21.922    -113.282     -15.095
  H      -23.210    -115.979     -14.390
  H      -22.916    -115.433     -16.030
  P      -21.397    -111.901     -11.520
  C      -19.065    -111.751     -12.584
  O      -19.930    -112.504     -11.758
  O      -22.024    -112.234     -10.208
  O      -21.160    -110.323     -11.683
  H      -20.916    -109.937     -10.822
  H      -18.033    -111.934     -12.273
  H      -19.273    -110.680     -12.513
  H      -19.186    -112.076     -13.621
  H      -20.658    -119.335     -16.981
  H      -19.345    -118.777     -15.972
  H      -20.256    -117.636     -16.931

 3  4  5  6  7  8  9  10  11  12  13  23  28  29  30  31  32 0
 6-311+G(2d,p)
 ****
 33  34 0
 6-311+G(2d,p)
 ****
 1  2  14  15  16  17  18  19  20  21  22  24  25  26  27 0
 3-21G
 ****
 35  36  37  38  39  40  41  42  43  44  45 0
 3-21G
 ****


