%nproc=1
%NoSave
%Mem=1900MB
#P OB98/GEN NMR

erre ene a

0 1
  C      229.109    -298.421    -436.710
  O      228.827    -297.286    -437.503
  H      230.039    -298.874    -437.063
  H      228.308    -299.159    -436.797
  H      229.236    -298.134    -435.661
  P      227.502    -296.447    -437.182
  C      228.825    -294.231    -437.126
  O      227.772    -294.966    -437.735
  C      228.751    -292.768    -437.546
  O      227.395    -292.288    -437.462
  C      229.596    -291.833    -436.683
  O      230.954    -291.874    -437.090
  C      228.921    -290.503    -436.976
  O      229.330    -290.026    -438.271
  C      227.439    -290.908    -437.002
  N      225.152    -287.844    -433.674
  C      225.779    -287.547    -434.869
  N      225.841    -286.240    -435.201
  N      226.313    -288.448    -435.655
  C      226.235    -289.702    -435.159
  C      225.654    -290.118    -433.983
  C      225.017    -289.122    -433.147
  O      224.436    -289.343    -432.092
  N      225.828    -291.465    -433.783
  C      226.481    -291.866    -434.858
  N      226.765    -290.832    -435.715
  O      227.020    -296.482    -435.763
  O      226.416    -297.030    -438.201
  H      229.036    -289.100    -438.332
  H      225.903    -297.752    -437.794
  H      224.777    -287.104    -433.105
  H      226.768    -292.890    -435.062
  H      226.855    -290.308    -437.709
  H      229.167    -289.727    -436.252
  H      225.710    -285.507    -434.514
  H      229.484    -292.051    -435.615
  H      226.342    -285.996    -436.046
  H      229.049    -292.705    -438.600
  H      229.772    -294.674    -437.453
  H      228.760    -294.306    -436.037
  P      232.142    -291.931    -436.011
  C      233.123    -293.459    -437.850
  O      233.397    -292.533    -436.807
  O      231.807    -292.646    -434.747
  O      232.565    -290.409    -435.801
  H      232.049    -289.947    -435.094
  H      234.043    -293.779    -438.294
  H      232.513    -292.989    -438.593
  H      232.607    -294.306    -437.448

 6  7  8  9  10  11  12  13  14  15  26  29  33  34 0
 6-311+G(2d,p)
 ****
 36  38  39  40  41 0
 6-311+G(2d,p)
 ****
 1  2  3  4  5  16  17  18  19  20  21  22  23  24  25 0
 3-21G
 ****
 27  28  30  31  32  35  37  42  43  44  45  46  47 0
 3-21G
 ****
 48  49 0
 3-21G
 ****


