%nproc=1
%NoSave
%Mem=1900MB
#P OB98/GEN NMR

erre ene a

0 1
  C       45.822     130.445     -95.420
  O       44.501     130.939     -95.337
  P       44.162     132.483     -95.603
  C       44.423     134.057     -97.619
  O       44.831     132.837     -97.021
  C       45.577     135.061     -97.680
  O       45.967     135.434     -96.330
  C       46.832     134.550     -98.401
  O       47.413     135.684     -99.049
  C       47.705     134.091     -97.248
  O       49.076     133.982     -97.608
  C       47.377     135.159     -96.196
  N       47.731     134.725     -94.849
  C       47.923     135.727     -93.896
  O       47.874     136.915     -94.224
  N       48.226     135.367     -92.607
  C       48.421     134.116     -92.321
  N       48.712     133.818     -91.028
  C       48.350     133.039     -93.326
  C       47.989     133.406     -94.552
  O       44.517     133.412     -94.491
  O       42.600     132.471     -95.949
  H       49.159     133.296     -98.304
  H       42.064     132.376     -95.124
  H       48.575     132.018     -93.053
  H       47.909     132.686     -95.356
  H       47.915     136.091     -96.412
  H       47.370     133.104     -96.903
  H       46.630     133.752     -99.119
  H       45.208     135.969     -98.172
  H       48.736     134.587     -90.368
  H       43.620     134.482     -97.011
  H       48.798     132.873     -90.684
  H       44.020     133.867     -98.620
  P       48.353     135.516    -100.338
  C       48.052     134.464    -102.651
  O       47.648     134.445    -101.294
  O       49.791     135.243    -100.041
  O       48.175     136.896    -101.139
  H       48.895     136.983    -101.796
  H       47.732     133.536    -103.131
  H       49.140     134.551    -102.736
  H       47.581     135.310    -103.161
  H       45.825     129.396     -95.208
  H       46.439     130.954     -94.709
  H       46.203     130.610     -96.406

 3  4  5  6  7  8  9  10  11  12  13  23  27  28  29  30  32 0
 6-311+G(2d,p)
 ****
 34  35 0
 6-311+G(2d,p)
 ****
 1  2  14  15  16  17  18  19  20  21  22  24  25  26 0
 3-21G
 ****
 31  33  36  37  38  39  40  41  42  43  44  45  46 0
 3-21G
 ****


