%nproc=1
%NoSave
%Mem=1900MB
#P OB98/GEN NMR

erre ene a

0 1
  C       14.564     -80.564      33.747
  O       14.091     -79.314      33.258
  P       15.077     -78.319      32.477
  C       12.975     -77.420      31.293
  O       14.181     -77.082      31.976
  C       12.084     -76.187      31.134
  O       11.503     -75.860      32.425
  C       12.835     -74.952      30.639
  O       11.975     -74.203      29.775
  C       13.076     -74.131      31.894
  O       13.214     -72.732      31.587
  C       11.847     -74.491      32.734
  N       10.299     -72.398      37.169
  C        9.799     -72.319      35.916
  N       10.272     -72.882      34.785
  C       11.359     -73.629      35.041
  C       11.984     -73.811      36.271
  C       11.411     -73.149      37.373
  N       11.915     -73.236      38.650
  N       13.091     -74.627      36.141
  C       13.123     -74.951      34.866
  N       12.090     -74.383      34.163
  O       15.905     -78.957      31.406
  O       15.983     -77.669      33.622
  H       13.322     -72.260      32.435
  H       16.903     -77.558      33.306
  H        8.889     -71.722      35.811
  H       13.870     -75.578      34.399
  H       10.982     -73.857      32.483
  H       14.003     -74.463      32.379
  H       13.768     -75.203      30.114
  H       11.253     -76.439      30.455
  H       12.447     -78.176      31.883
  H       11.371     -72.826      39.399
  H       12.634     -73.927      38.833
  H       13.219     -77.855      30.313
  P       12.510     -73.974      28.269
  C       10.288     -73.986      26.913
  O       11.306     -73.224      27.517
  O       13.016     -75.245      27.656
  O       13.626     -72.846      28.503
  H       13.445     -72.320      29.321
  H        9.582     -73.303      26.418
  H        9.741     -74.556      27.670
  H       10.710     -74.669      26.163
  H       13.765     -81.081      34.235
  H       15.359     -80.397      34.443
  H       14.924     -81.154      32.930

 3  4  5  6  7  8  9  10  11  12  22  25  29  30  31  32 0
 6-311+G(2d,p)
 ****
 33  36  37 0
 6-311+G(2d,p)
 ****
 1  2  13  14  15  16  17  18  19  20  21  23  24  26 0
 3-21G
 ****
 27  28  34  35  38  39  40  41  42  43  44  45  46  47  48 0
 3-21G
 ****


