%nproc=1
%NoSave
%Mem=1900MB
#P OB98/GEN NMR

erre ene a

0 1
  C      291.836      36.271      91.060
  O      291.059      35.146      90.708
  P      291.365      33.711      91.359
  C      293.311      32.026      91.254
  O      292.721      33.187      90.674
  C      293.788      31.075      90.158
  O      292.664      30.473      89.461
  C      294.592      31.754      89.056
  O      295.849      32.295      89.406
  C      294.573      30.683      87.973
  O      295.559      29.680      88.216
  C      293.146      30.096      88.146
  N      292.238      30.542      87.091
  C      292.623      30.230      85.788
  O      293.657      29.621      85.508
  N      291.787      30.675      84.797
  C      290.659      31.425      84.973
  O      289.980      31.831      84.035
  C      290.314      31.736      86.371
  C      291.107      31.288      87.352
  O      290.231      32.739      91.312
  O      291.852      34.073      92.841
  H      296.433      30.079      88.039
  H      292.643      34.638      92.884
  H      292.053      30.474      83.846
  H      289.420      32.318      86.546
  H      290.872      31.507      88.387
  H      293.183      28.998      88.128
  H      294.773      31.105      86.982
  H      294.002      32.600      88.677
  H      294.351      30.266      90.625
  H      292.561      31.514      91.864
  H      294.135      32.323      91.910
  P      296.419      33.660      88.798
  C      297.639      34.410      86.633
  O      297.084      33.345      87.372
  O      297.182      34.545      89.733
  O      295.063      34.412      88.363
  H      295.190      35.376      88.450
  H      298.001      34.022      85.679
  H      298.482      34.856      87.178
  H      296.883      35.174      86.433
  H      291.483      37.129      90.527
  H      292.860      36.090      90.808
  H      291.754      36.446      92.112

 3  4  5  6  7  8  9  10  11  12  13  23  28  29  30  31  32 0
 6-311+G(2d,p)
 ****
 33  34 0
 6-311+G(2d,p)
 ****
 1  2  14  15  16  17  18  19  20  21  22  24  25  26  27 0
 3-21G
 ****
 35  36  37  38  39  40  41  42  43  44  45 0
 3-21G
 ****


