%nproc=1
%NoSave
%Mem=1900MB
#P OB98/GEN NMR

erre ene a

0 1
  C      -12.581    -253.858    -335.845
  O      -12.472    -252.979    -334.744
  H      -12.470    -253.279    -336.765
  H      -13.557    -254.340    -335.845
  H      -11.789    -254.613    -335.809
  P      -12.589    -253.644    -333.285
  C      -10.710    -253.928    -331.502
  O      -11.354    -253.079    -332.435
  C       -9.447    -253.258    -330.946
  O       -8.394    -253.334    -331.956
  C       -9.627    -251.773    -330.606
  O       -8.719    -251.447    -329.539
  C       -9.170    -251.102    -331.892
  O       -8.946    -249.723    -331.690
  C       -7.957    -251.979    -332.219
  N       -4.496    -249.798    -335.286
  C       -4.651    -249.778    -333.946
  N       -5.587    -250.395    -333.197
  C       -6.425    -251.107    -333.976
  C       -6.391    -251.236    -335.349
  C       -5.367    -250.532    -336.022
  N       -5.217    -250.551    -337.390
  N       -7.415    -252.058    -335.801
  C       -8.050    -252.417    -334.707
  N       -7.499    -251.866    -333.581
  O      -12.201    -255.178    -333.551
  O      -13.920    -253.514    -332.624
  H       -8.849    -249.254    -332.546
  H      -13.012    -255.707    -333.677
  H       -3.919    -249.180    -333.400
  H       -8.925    -253.062    -334.668
  H       -7.113    -251.765    -331.555
  H       -9.937    -251.190    -332.673
  H      -10.645    -251.515    -330.302
  H       -9.090    -253.826    -330.072
  H      -10.443    -254.866    -332.012
  H      -11.396    -254.157    -330.675
  H       -4.466    -250.003    -337.794
  H       -5.868    -251.079    -337.953
  P       -9.300    -251.157    -328.066
  C       -8.364    -251.777    -325.698
  O       -8.101    -251.284    -327.008
  O      -10.148    -252.486    -327.777
  O      -10.163    -249.944    -327.940
  H      -10.869    -252.282    -327.162
  H       -7.455    -251.793    -325.134
  H       -8.761    -252.769    -325.763
  H       -9.074    -251.140    -325.213

 6  7  8  9  10  11  12  13  14  15  25  28  32  33  34  35 0
 6-311+G(2d,p)
 ****
 36  37  40 0
 6-311+G(2d,p)
 ****
 1  2  3  4  5  16  17  18  19  20  21  22  23  24 0
 3-21G
 ****
 26  27  29  30  31  38  39 41  42  43  44  45  46  47  48 0
 3-21G
 ****


