%nproc=1
%NoSave
%Mem=1900MB
#P OB98/GEN NMR

erre ene a

0 1
  C     -447.751    1129.892    -147.095
  O     -448.611    1128.948    -147.699
  H     -447.253    1129.456    -146.221
  H     -446.997    1130.195    -147.816
  H     -448.325    1130.774    -146.785
  P     -449.730    1128.296    -146.759
  C     -449.019    1125.855    -147.263
  O     -450.040    1126.837    -147.345
  C     -449.310    1124.689    -148.193
  O     -450.583    1124.096    -147.877
  C     -449.425    1125.064    -149.677
  O     -448.141    1125.217    -150.273
  C     -450.156    1123.849    -150.228
  O     -449.220    1122.763    -150.439
  C     -451.120    1123.498    -149.086
  N     -455.238    1123.409    -152.163
  C     -454.009    1122.814    -152.261
  N     -452.968    1122.890    -151.425
  C     -453.267    1123.660    -150.371
  C     -454.457    1124.344    -150.130
  C     -455.468    1124.200    -151.089
  N     -456.696    1124.814    -150.985
  N     -454.406    1125.028    -148.933
  C     -453.212    1124.784    -148.450
  N     -452.476    1123.963    -149.289
  O     -451.053    1129.122    -147.103
  O     -449.435    1128.337    -145.289
  H     -448.668    1123.023    -151.204
  H     -451.580    1129.236    -146.297
  H     -453.882    1122.195    -153.162
  H     -452.818    1125.156    -147.521
  H     -451.152    1122.417    -148.912
  H     -450.644    1124.031    -151.188
  H     -450.047    1125.971    -149.812
  H     -448.534    1123.923    -148.059
  H     -448.949    1125.474    -146.234
  H     -457.448    1124.522    -151.603
  H     -456.876    1125.407    -150.172
  H     -448.068    1126.320    -147.530
  P     -447.630    1126.718    -150.566
  C     -446.656    1125.891    -152.824
  O     -446.412    1126.572    -151.586
  O     -446.910    1127.122    -149.186
  O     -448.699    1127.688    -150.935
  H     -446.918    1128.098    -149.086
  H     -445.756    1125.869    -153.403
  H     -447.419    1126.406    -153.370
  H     -446.975    1124.890    -152.623

 6  7  8  9  10  11  12  13  14  15  25  28  32  33  34  35 0
 6-311+G(2d,p)
 ****
 36  39  40 0
 6-311+G(2d,p)
 ****
 1  2  3  4  5  16  17  18  19  20  21  22  23  24 0
 3-21G
 ****
 26  27  29  30  31  37  38  41  42  43  44  45  46  47  48 0
 3-21G
 ****


