%nproc=1
%NoSave
%Mem=1900MB
#P OB98/GEN NMR

erre ene a

0 1
  C     -264.712     670.287    -467.373
  O     -265.784     671.034    -466.815
  P     -266.834     671.700    -467.831
  C     -267.697     674.126    -468.035
  O     -266.587     673.288    -467.756
  C     -267.346     675.590    -467.799
  O     -267.138     675.796    -466.367
  C     -266.070     676.069    -468.519
  O     -266.302     677.364    -469.098
  C     -265.061     676.236    -467.382
  O     -264.045     677.174    -467.718
  C     -265.989     676.669    -466.245
  N     -263.020     678.994    -462.884
  C     -263.607     679.492    -464.035
  N     -263.315     680.770    -464.362
  N     -264.403     678.786    -464.802
  C     -264.635     677.532    -464.333
  C     -264.118     676.942    -463.213
  C     -263.194     677.696    -462.398
  O     -262.568     677.296    -461.422
  N     -264.605     675.656    -463.055
  C     -265.404     675.481    -464.093
  N     -265.420     676.573    -464.923
  O     -268.232     671.500    -467.067
  O     -266.862     671.109    -469.194
  H     -263.691     676.898    -468.586
  H     -268.856     671.020    -467.653
  H     -262.387     679.572    -462.340
  H     -265.968     674.568    -464.304
  H     -266.328     677.701    -466.399
  H     -264.593     675.266    -467.178
  H     -262.730     681.376    -463.806
  H     -265.710     675.369    -469.299
  H     -263.750     681.152    -465.185
  H     -268.203     676.213    -468.077
  H     -268.538     673.843    -467.379
  H     -268.005     673.984    -469.080
  P     -265.602     677.629    -470.504
  C     -263.114     677.875    -471.261
  O     -264.042     677.863    -470.200
  O     -266.129     679.097    -470.904
  O     -265.924     676.609    -471.557
  H     -266.106     679.219    -471.880
  H     -263.607     677.892    -472.242
  H     -262.488     676.991    -471.196
  H     -262.482     678.770    -471.180
  H     -264.096     669.904    -466.586
  H     -264.128     670.921    -468.007
  H     -265.105     669.473    -467.946

 3  4  5  6  7  8  9  10  11  12  23  26  30  31  33  0
 6-311+G(2d,p)
 ****
 35  36  37  38 0
 6-311+G(2d,p)
 ****
 1  2  13  14  15  16  17  18  19  20  21  22  24  25  27  28  29 0
 3-21G
 ****
 32  34  39  40  41  42  43  44  45  46  47  48  49 0
 3-21G
 ****


