%nproc=1
%NoSave
%Mem=1900MB
#P OB98/GEN NMR

erre ene a

0 1
  C     -244.228    -166.740     -27.139
  O     -243.507    -166.194     -26.052
  H     -244.351    -165.969     -27.902
  H     -245.217    -167.065     -26.806
  H     -243.685    -167.585     -27.572
  P     -243.114    -167.193     -24.863
  C     -240.704    -166.724     -23.992
  O     -242.084    -166.394     -23.925
  C     -240.069    -166.052     -25.209
  O     -240.278    -164.616     -25.107
  C     -238.557    -166.289     -25.314
  O     -238.201    -166.417     -26.694
  C     -237.962    -165.010     -24.748
  O     -236.643    -164.745     -25.195
  C     -238.989    -163.978     -25.223
  N     -238.950    -162.744     -24.443
  C     -238.918    -161.541     -25.144
  O     -238.999    -161.443     -26.369
  N     -238.786    -160.414     -24.377
  C     -238.660    -160.370     -23.017
  O     -238.521    -159.328     -22.389
  C     -238.693    -161.673     -22.334
  C     -238.830    -162.779     -23.065
  O     -242.182    -168.279     -25.584
  O     -244.259    -167.812     -24.134
  H     -242.721    -169.024     -25.914
  H     -236.412    -163.831     -24.931
  H     -238.761    -159.533     -24.870
  H     -238.587    -161.677     -21.259
  H     -238.844    -163.757     -22.595
  H     -238.834    -163.745     -26.287
  H     -237.946    -165.062     -23.652
  H     -238.227    -167.169     -24.763
  H     -240.588    -166.389     -26.116
  H     -240.599    -167.811     -24.085
  H     -240.208    -166.395     -23.075
  P     -237.714    -167.865     -27.197
  C     -238.386    -167.543     -29.706
  O     -237.346    -167.686     -28.753
  O     -239.089    -168.674     -27.207
  O     -236.636    -168.446     -26.345
  H     -239.856    -168.142     -27.483
  H     -237.962    -167.436     -30.683
  H     -238.967    -166.676     -29.472
  H     -239.013    -168.410     -29.682

 6  7  8  9  10  11  12  13  14  15  16  27  31  32  33  34  35 0
 6-311+G(2d,p)
 ****
 36  37 0
 6-311+G(2d,p)
 ****
 1  2  3  4  5  17  18  19  20  21  22  23  24  25 0
 3-21G
 ****
 26  28  29  30  38  39  40  41  42  43  44  45 0
 3-21G
 ****


