%nproc=1
%NoSave
%Mem=1900MB
#P OB98/GEN NMR

erre ene a

0 1
  C     -453.499     176.983      85.744
  O     -453.870     175.714      85.233
  H     -454.405     177.579      85.889
  H     -452.844     177.497      85.035
  H     -452.994     176.866      86.706
  P     -452.676     174.675      84.973
  C     -452.990     173.286      87.134
  O     -452.199     174.244      86.443
  C     -452.231     171.968      87.272
  O     -452.960     171.048      88.105
  C     -451.996     171.239      85.956
  O     -450.886     171.787      85.266
  C     -451.707     169.831      86.456
  O     -450.344     169.749      86.916
  C     -452.671     169.698      87.649
  N     -454.887     165.254      86.343
  C     -453.594     165.631      86.387
  N     -453.077     166.839      86.703
  C     -454.056     167.711      86.993
  C     -455.423     167.473      86.989
  C     -455.832     166.171      86.654
  N     -457.158     165.790      86.618
  N     -456.121     168.611      87.341
  C     -455.191     169.506      87.599
  N     -453.925     169.024      87.372
  O     -451.610     175.132      84.039
  O     -453.496     173.387      84.489
  H     -449.771     170.049      86.186
  H     -454.320     173.294      84.999
  H     -452.868     164.861      86.142
  H     -455.378     170.505      87.975
  H     -452.207     169.161      88.487
  H     -451.827     169.078      85.672
  H     -452.902     171.221      85.338
  H     -451.279     172.180      87.776
  H     -453.936     173.119      86.607
  H     -457.371     164.893      86.205
  H     -457.861     166.501      86.733
  H     -453.213     173.697      88.125
  P     -450.179     170.974      84.076
  C     -452.094     171.706      82.521
  O     -451.333     170.611      83.021
  O     -449.355     169.813      84.511
  O     -449.310     172.067      83.300
  H     -448.461     171.681      83.009
  H     -452.828     171.345      81.831
  H     -451.444     172.394      82.022
  H     -452.582     172.202      83.334

 6  7  8  9  10  11  12  13  14  15  25  28  32  33  34  35 0
 6-311+G(2d,p)
 ****
 36  39  40 0
 6-311+G(2d,p)
 ****
 1  2  3  4  5  16  17  18  19  20  21  22  23  24 0
 3-21G
 ****
 26  27  29  30  31  37  38  41  42  43  44  45  46  47 0
 3-21G
 ****
 48 0
 3-21G
 ****


