%nproc=1
%NoSave
%Mem=1900MB
#P OB98/GEN NMR

erre ene a

0 1
  C     -273.193    -146.866     236.137
  O     -274.530    -146.451     235.836
  P     -275.544    -146.316     237.077
  C     -276.329    -148.712     236.473
  O     -276.010    -147.794     237.511
  C     -277.734    -149.309     236.663
  O     -277.727    -150.322     237.710
  C     -278.794    -148.270     237.057
  O     -280.038    -148.675     236.474
  C     -278.887    -148.432     238.564
  O     -280.107    -147.896     239.075
  C     -278.721    -149.945     238.687
  N     -280.116    -152.558     242.852
  C     -280.736    -152.334     241.674
  N     -280.305    -151.607     240.617
  C     -279.078    -151.116     240.859
  C     -278.321    -151.254     242.013
  C     -278.887    -152.015     243.049
  N     -278.266    -152.219     244.263
  N     -277.122    -150.564     241.898
  C     -277.167    -150.020     240.693
  N     -278.309    -150.347     240.019
  O     -276.858    -145.689     236.409
  O     -275.031    -145.457     238.189
  H     -280.036    -147.858     240.054
  H     -276.955    -144.757     236.684
  H     -281.717    -152.800     241.564
  H     -276.405    -149.374     240.274
  H     -279.651    -150.489     238.457
  H     -278.052    -147.908     239.050
  H     -278.559    -147.245     236.759
  H     -278.032    -149.799     235.728
  H     -275.597    -149.525     236.453
  H     -278.754    -152.753     244.964
  H     -277.376    -151.780     244.439
  H     -276.241    -148.205     235.506
  P     -280.284    -148.252     234.945
  C     -280.118    -145.743     235.583
  O     -279.636    -146.798     234.772
  O     -281.864    -147.983     234.877
  O     -279.853    -149.283     233.948
  H     -282.189    -148.109     233.966
  H     -279.269    -145.128     235.906
  H     -280.645    -146.108     236.470
  H     -280.802    -145.121     234.991
  H     -272.623    -146.917     235.233
  H     -273.215    -147.831     236.599
  H     -272.742    -146.161     236.804

 3  4  5  6  7  8  9  10  11  12  22  25  29  30  31  32 0
 6-311+G(2d,p)
 ****
 33  36  37 0
 6-311+G(2d,p)
 ****
 1  2  13  14  15  16  17  18  19  20  21  23  24  26 0
 3-21G
 ****
 27  28  34  35  38  39  40  41  42  43  44  45  46  47  48 0
 3-21G
 ****


