%nproc=1
%NoSave
%Mem=1900MB
#P OB98/GEN NMR

erre ene a

0 1
  C      -22.918     102.801      52.174
  O      -23.450     103.591      51.107
  P      -24.555     104.683      51.502
  C      -23.671     106.854      50.383
  O      -24.607     105.785      50.338
  C      -23.759     107.683      49.102
  O      -23.713     106.851      47.923
  C      -25.054     108.476      48.982
  O      -25.040     109.607      49.837
  C      -25.051     108.807      47.494
  O      -24.174     109.914      47.226
  C      -24.464     107.524      46.883
  N      -26.781     105.853      42.639
  C      -25.805     106.765      42.835
  N      -25.243     107.156      43.998
  C      -25.781     106.490      45.033
  C      -26.778     105.530      44.987
  C      -27.292     105.215      43.718
  N      -28.297     104.296      43.520
  N      -27.072     105.073      46.255
  C      -26.282     105.762      47.054
  N      -25.475     106.623      46.360
  O      -23.887     105.458      52.731
  O      -25.875     104.093      51.874
  H      -23.333     109.739      47.693
  H      -24.341     105.223      53.561
  H      -25.425     107.248      41.939
  H      -26.258     105.674      48.133
  H      -23.767     107.735      46.064
  H      -26.040     109.072      47.111
  H      -25.913     107.838      49.223
  H      -22.901     108.367      49.079
  H      -22.657     106.465      50.503
  H      -28.661     104.187      42.587
  H      -28.744     103.880      44.324
  H      -23.879     107.467      51.266
  P      -25.847     109.508      51.219
  C      -24.563     111.602      51.970
  O      -25.837     111.018      51.772
  O      -24.783     108.783      52.163
  O      -27.186     108.862      51.122
  H      -23.894     109.171      52.072
  H      -24.701     112.631      52.312
  H      -24.001     111.611      51.033
  H      -24.011     111.047      52.733
  H      -22.196     102.115      51.784
  H      -23.710     102.256      52.644
  H      -22.450     103.441      52.893

 3  4  5  6  7  8  9  10  11  12  22  25  29  30  31  32 0
 6-311+G(2d,p)
 ****
 33  36  37 0
 6-311+G(2d,p)
 ****
 1  2  13  14  15  16  17  18  19  20  21  23  24  26 0
 3-21G
 ****
 27  28  34  35  38  39  40  41  42  43  44  45  46  47  48 0
 3-21G
 ****


