%nproc=1
%NoSave
%Mem=1900MB
#P OB98/GEN NMR

erre ene a

0 1
  C     -198.121      77.235    -136.809
  O     -196.805      77.492    -137.257
  P     -195.722      78.147    -136.278
  C     -195.183      75.766    -135.504
  O     -195.447      77.101    -135.091
  C     -193.781      75.323    -135.087
  O     -193.643      73.897    -135.330
  C     -192.638      76.028    -135.832
  O     -191.557      76.152    -134.903
  C     -192.271      75.021    -136.909
  O     -190.960      75.218    -137.426
  C     -192.461      73.719    -136.140
  N     -190.630      69.131    -137.452
  C     -190.193      70.053    -136.569
  N     -190.722      71.263    -136.295
  C     -191.816      71.483    -137.042
  C     -192.362      70.651    -138.004
  C     -191.729      69.408    -138.191
  N     -192.181      68.442    -139.062
  N     -193.454      71.256    -138.600
  C     -193.560      72.425    -138.006
  N     -192.632      72.579    -137.013
  O     -196.029      79.535    -135.825
  O     -194.363      78.103    -137.121
  H     -190.915      76.109    -137.821
  H     -194.137      79.001    -137.435
  H     -189.306      69.783    -136.003
  H     -194.282      73.191    -138.252
  H     -191.620      73.507    -135.470
  H     -192.979      75.100    -137.742
  H     -192.910      77.004    -136.242
  H     -193.683      75.475    -134.005
  H     -195.263      75.727    -136.594
  H     -191.732      67.541    -139.020
  H     -193.130      68.511    -139.422
  H     -195.934      75.091    -135.078
  P     -191.034      77.607    -134.477
  C     -192.582      77.826    -132.451
  O     -192.253      78.329    -133.733
  O     -190.387      78.397    -135.563
  O     -190.011      77.299    -133.279
  H     -189.435      78.074    -133.137
  H     -193.192      76.925    -132.561
  H     -193.157      78.582    -131.910
  H     -191.682      77.587    -131.879
  H     -198.689      76.799    -137.604
  H     -198.580      78.152    -136.504
  H     -198.090      76.559    -135.980

 3  4  5  6  7  8  9  10  11  12  22  25  29  30  31  32 0
 6-311+G(2d,p)
 ****
 33  36  37 0
 6-311+G(2d,p)
 ****
 1  2  13  14  15  16  17  18  19  20  21  23  24  26 0
 3-21G
 ****
 27  28  34  35  38  39  40  41  42  43  44  45  46  47  48 0
 3-21G
 ****


