%nproc=1
%NoSave
%Mem=1900MB
#P OB98/GEN NMR

erre ene a

0 1
  C      -21.653     -24.428     -32.409
  O      -21.924     -23.284     -31.626
  H      -21.520     -24.114     -33.448
  H      -22.493     -25.125     -32.363
  H      -20.737     -24.920     -32.073
  P      -22.065     -23.450     -30.037
  C      -24.597     -23.500     -30.475
  O      -23.556     -22.991     -29.656
  C      -25.915     -22.787     -30.174
  O      -26.330     -23.125     -28.826
  C      -25.824     -21.261     -30.271
  O      -27.043     -20.770     -30.829
  C      -25.715     -20.823     -28.823
  O      -26.204     -19.499     -28.619
  C      -26.535     -21.894     -28.107
  N      -26.358     -19.561     -23.631
  C      -26.913     -19.152     -24.828
  N      -27.485     -17.930     -24.847
  N      -26.904     -19.879     -25.915
  C      -26.310     -21.086     -25.749
  C      -25.725     -21.604     -24.619
  C      -25.728     -20.784     -23.425
  O      -25.242     -21.086     -22.342
  N      -25.205     -22.852     -24.856
  C      -25.475     -23.085     -26.128
  N      -26.135     -22.039     -26.716
  O      -20.992     -22.797     -29.227
  O      -22.099     -25.032     -29.814
  H      -25.606     -18.893     -29.108
  H      -21.227     -25.359     -29.525
  H      -26.384     -18.957     -22.827
  H      -25.210     -23.984     -26.669
  H      -27.609     -21.667     -28.107
  H      -24.664     -20.855     -28.505
  H      -27.544     -17.322     -24.045
  H      -24.975     -20.921     -30.870
  H      -27.920     -17.618     -25.709
  H      -26.684     -23.179     -30.851
  H      -24.703     -24.571     -30.271
  H      -24.330     -23.365     -31.529
  P      -27.190     -20.705     -32.424
  C      -25.573     -18.710     -32.616
  O      -26.878     -19.205     -32.896
  O      -28.439     -21.302     -32.982
  O      -25.893     -21.504     -32.931
  H      -26.100     -21.931     -33.785
  H      -25.487     -17.706     -32.976
  H      -24.846     -19.327     -33.102
  H      -25.405     -18.725     -31.559

 6  7  8  9  10  11  12  13  14  15  26  29  33  34 0
 6-311+G(2d,p)
 ****
 36  38  39  40  41 0
 6-311+G(2d,p)
 ****
 1  2  3  4  5  16  17  18  19  20  21  22  23  24  25 0
 3-21G
 ****
 27  28  30  31  32  35  37  42  43  44  45  46  47 0
 3-21G
 ****
 48  49 0
 3-21G
 ****


