%nproc=1
%NoSave
%Mem=1900MB
#P OB98/GEN NMR

erre ene a

0 1
  C      619.098      37.913     -19.097
  O      619.754      38.603     -20.160
  P      619.116      38.629     -21.635
  C      619.829      41.016     -22.219
  O      619.964      39.639     -22.556
  C      620.788      41.470     -21.107
  O      622.152      41.083     -21.406
  C      620.795      42.976     -20.841
  O      621.036      43.124     -19.436
  C      621.995      43.443     -21.647
  O      622.470      44.714     -21.235
  C      622.962      42.269     -21.427
  N      623.995      42.205     -22.461
  C      625.163      42.928     -22.234
  O      625.273      43.632     -21.228
  N      626.167      42.882     -23.169
  C      625.973      42.243     -24.284
  N      626.995      42.253     -25.188
  C      624.719      41.536     -24.607
  C      623.787      41.552     -23.652
  O      617.641      38.844     -21.674
  O      619.489      37.188     -22.236
  H      621.713      45.339     -21.217
  H      618.799      36.916     -22.871
  H      624.589      41.042     -25.560
  H      622.832      41.057     -23.786
  H      623.454      42.355     -20.454
  H      621.721      43.517     -22.704
  H      619.870      43.475     -21.132
  H      620.499      40.930     -20.193
  H      627.826      42.774     -24.940
  H      618.799      41.195     -21.898
  H      626.903      41.889     -26.120
  H      619.996      41.617     -23.120
  P      619.841      43.206     -18.373
  C      620.731      42.147     -16.225
  O      620.516      43.355     -16.928
  O      618.830      42.115     -18.480
  O      619.173      44.644     -18.618
  H      618.285      44.657     -18.212
  H      621.375      42.350     -15.362
  H      621.208      41.402     -16.858
  H      619.775      41.754     -15.863
  H      619.673      38.010     -18.200
  H      619.002      36.878     -19.349
  H      618.126      38.334     -18.945

 3  4  5  6  7  8  9  10  11  12  13  23  27  28  29  30  32 0
 6-311+G(2d,p)
 ****
 34  35 0
 6-311+G(2d,p)
 ****
 1  2  14  15  16  17  18  19  20  21  22  24  25  26 0
 3-21G
 ****
 31  33  36  37  38  39  40  41  42  43  44  45  46 0
 3-21G
 ****


