%nproc=1
%NoSave
%Mem=1900MB
#P OB98/GEN NMR

erre ene a

0 1
  C      -52.378    -322.874    1407.969
  O      -52.009    -323.663    1409.082
  H      -52.958    -322.019    1408.328
  H      -52.989    -323.454    1407.275
  H      -51.482    -322.502    1407.455
  P      -50.999    -324.879    1408.807
  C      -49.833    -326.698    1410.306
  O      -50.604    -325.499    1410.236
  C      -49.550    -327.039    1411.770
  O      -48.703    -326.044    1412.381
  C      -50.776    -327.083    1412.652
  O      -51.608    -328.197    1412.394
  C      -50.129    -327.088    1414.033
  O      -49.660    -328.406    1414.370
  C      -48.941    -326.121    1413.807
  N      -49.179    -324.795    1414.409
  C      -48.532    -324.548    1415.623
  O      -47.814    -325.394    1416.136
  N      -48.755    -323.353    1416.252
  C      -49.532    -322.458    1415.696
  N      -49.719    -321.292    1416.357
  C      -50.203    -322.676    1414.400
  C      -49.995    -323.851    1413.817
  O      -49.659    -324.128    1408.358
  O      -51.492    -325.911    1407.832
  H      -48.925    -328.601    1413.741
  H      -49.370    -323.454    1408.987
  H      -50.841    -321.904    1413.962
  H      -50.464    -324.093    1412.858
  H      -48.017    -326.525    1414.266
  H      -50.825    -326.788    1414.812
  H      -51.339    -326.141    1412.553
  H      -49.003    -327.998    1411.796
  H      -49.257    -321.196    1417.259
  H      -48.904    -326.603    1409.741
  H      -50.323    -320.533    1416.049
  H      -50.427    -327.495    1409.843
  P      -53.128    -328.218    1412.887
  C      -55.326    -329.282    1412.076
  O      -53.933    -329.115    1411.835
  O      -53.736    -326.871    1413.149
  O      -53.083    -329.164    1414.189
  H      -52.782    -330.060    1414.023
  H      -55.749    -329.897    1411.310
  H      -55.806    -328.326    1412.072
  H      -55.470    -329.749    1413.028

 6  7  8  9  10  11  12  13  14  15  16  26  30  31  32  33  35 0
 6-311+G(2d,p)
 ****
 37  38 0
 6-311+G(2d,p)
 ****
 1  2  3  4  5  17  18  19  20  21  22  23  24  25 0
 3-21G
 ****
 27  28  29  34  36  39  40  41  42  43  44  45  46 0
 3-21G
 ****


