%nproc=1
%NoSave
%Mem=1900MB
#P OB98/GEN NMR

erre ene a

0 1
  C      559.290     567.551    -119.526
  O      559.911     568.282    -118.459
  P      561.480     568.039    -118.227
  C      563.491     569.665    -117.928
  O      562.109     569.417    -117.703
  C      563.768     571.174    -117.993
  O      563.187     571.753    -119.176
  C      563.183     571.961    -116.831
  O      563.992     571.866    -115.671
  C      563.216     573.379    -117.401
  O      564.533     573.946    -117.227
  C      562.920     573.156    -118.891
  N      559.530     576.790    -119.928
  C      560.877     576.881    -119.602
  N      561.384     578.136    -119.588
  N      561.644     575.860    -119.330
  C      560.983     574.666    -119.425
  C      559.663     574.442    -119.734
  C      558.824     575.589    -119.996
  O      557.629     575.553    -120.253
  N      559.371     573.107    -119.733
  C      560.527     572.513    -119.458
  N      561.535     573.424    -119.252
  O      562.053     567.914    -119.720
  O      561.793     566.831    -117.410
  H      564.849     573.671    -116.343
  H      562.860     567.374    -119.723
  H      558.984     577.611    -120.114
  H      560.690     571.444    -119.405
  H      563.569     573.749    -119.533
  H      562.507     574.060    -116.885
  H      560.881     578.960    -119.852
  H      562.146     571.659    -116.629
  H      562.378     578.225    -119.379
  H      564.851     571.315    -118.038
  H      563.806     569.205    -118.871
  H      564.077     569.191    -117.140
  P      563.607     570.733    -114.596
  C      564.636     570.005    -112.328
  O      564.577     570.983    -113.337
  O      564.172     569.399    -115.264
  O      562.148     570.643    -114.295
  H      563.642     568.626    -114.970
  H      564.666     568.994    -112.742
  H      563.754     570.100    -111.667
  H      565.528     570.156    -111.725
  H      558.251     567.802    -119.573
  H      559.395     566.501    -119.348
  H      559.761     567.804    -120.453

 3  4  5  6  7  8  9  10  11  12  23  26  30  31  33  0
 6-311+G(2d,p)
 ****
 35  36  37  38 0
 6-311+G(2d,p)
 ****
 1  2  13  14  15  16  17  18  19  20  21  22  24  25  27  28  29 0
 3-21G
 ****
 32  34  39  40  41  42  43  44  45  46  47  48  49 0
 3-21G
 ****


