%nproc=1
%NoSave
%Mem=1900MB
#P OB98/GEN NMR

erre ene a

0 1
  C     -317.781    -330.209     279.866
  O     -318.673    -329.574     278.977
  H     -317.109    -329.458     280.289
  H     -317.181    -330.949     279.329
  H     -318.326    -330.693     280.681
  P     -319.857    -330.463     278.356
  C     -319.761    -329.677     275.883
  O     -320.455    -329.629     277.120
  C     -319.944    -328.363     275.120
  O     -319.231    -327.311     275.823
  C     -319.414    -328.410     273.684
  O     -320.302    -327.661     272.847
  C     -318.076    -327.696     273.769
  O     -317.676    -327.128     272.523
  C     -318.341    -326.678     274.885
  N     -317.097    -326.251     275.522
  C     -316.796    -324.888     275.458
  O     -317.555    -324.112     274.874
  N     -315.616    -324.443     275.998
  C     -314.773    -325.296     276.487
  N     -313.606    -324.796     276.982
  C     -315.018    -326.754     276.513
  C     -316.190    -327.154     276.028
  O     -321.011    -330.363     279.458
  O     -319.494    -331.874     278.034
  H     -317.445    -327.861     271.910
  H     -321.545    -331.180     279.485
  H     -314.273    -327.426     276.906
  H     -316.458    -328.202     276.002
  H     -318.853    -325.794     274.487
  H     -317.302    -328.408     274.078
  H     -319.317    -329.426     273.292
  H     -321.006    -328.097     275.136
  H     -313.469    -323.796     276.924
  H     -320.163    -330.496     275.280
  H     -312.856    -325.373     277.341
  H     -318.698    -329.865     276.069
  P     -320.782    -328.370     271.491
  C     -319.934    -326.413     270.003
  O     -321.034    -327.227     270.392
  O     -322.253    -328.888     271.845
  O     -319.891    -329.486     271.050
  H     -322.251    -329.860     271.929
  H     -320.257    -325.704     269.270
  H     -319.164    -327.029     269.588
  H     -319.554    -325.894     270.858

 6  7  8  9  10  11  12  13  14  15  16  26  30  31  32  33  35 0
 6-311+G(2d,p)
 ****
 37  38 0
 6-311+G(2d,p)
 ****
 1  2  3  4  5  17  18  19  20  21  22  23  24  25 0
 3-21G
 ****
 27  28  29  34  36  39  40  41  42  43  44  45  46 0
 3-21G
 ****


