%nproc=1
%NoSave
%Mem=1900MB
#P OB98/GEN NMR

erre ene a

0 1
  C     -256.701     359.246    -344.160
  O     -256.312     360.484    -344.739
  P     -256.268     361.822    -343.851
  C     -257.982     363.559    -343.033
  O     -257.794     362.295    -343.668
  C     -259.178     364.288    -343.640
  O     -258.842     364.700    -344.992
  C     -260.437     363.422    -343.730
  O     -261.577     364.254    -343.485
  C     -260.479     362.969    -345.176
  O     -261.824     362.675    -345.592
  C     -259.823     364.154    -345.891
  N     -260.461     362.363    -350.658
  C     -261.350     362.667    -349.686
  N     -261.109     363.112    -348.436
  C     -259.791     363.293    -348.246
  C     -258.772     363.041    -349.143
  C     -259.144     362.546    -350.405
  N     -258.238     362.252    -351.402
  N     -257.544     363.326    -348.577
  C     -257.820     363.764    -347.373
  N     -259.168     363.775    -347.125
  O     -255.345     362.881    -344.355
  O     -255.864     361.322    -342.390
  H     -262.196     363.502    -345.965
  H     -255.259     361.964    -341.967
  H     -262.396     362.520    -349.947
  H     -257.097     364.075    -346.638
  H     -260.553     364.945    -346.111
  H     -259.881     362.052    -345.291
  H     -260.427     362.580    -343.023
  H     -259.370     365.194    -343.053
  H     -257.078     364.157    -343.184
  H     -258.606     362.021    -352.306
  H     -257.276     362.549    -351.273
  H     -258.123     363.407    -341.956
  P     -262.742     363.589    -342.584
  C     -263.793     361.202    -342.567
  O     -263.000     362.153    -343.248
  O     -263.925     364.498    -342.445
  O     -261.957     363.297    -341.223
  H     -260.989     363.203    -341.379
  H     -263.814     360.282    -343.153
  H     -264.816     361.574    -342.455
  H     -263.372     360.993    -341.579
  H     -256.668     358.478    -344.904
  H     -257.697     359.329    -343.777
  H     -256.031     358.999    -343.363

 3  4  5  6  7  8  9  10  11  12  22  25  29  30  31  32 0
 6-311+G(2d,p)
 ****
 33  36  37 0
 6-311+G(2d,p)
 ****
 1  2  13  14  15  16  17  18  19  20  21  23  24  26 0
 3-21G
 ****
 27  28  34  35  38  39  40  41  42  43  44  45  46  47  48 0
 3-21G
 ****


