%nproc=1
%NoSave
%Mem=1900MB
#P OB98/GEN NMR

erre ene a

0 1
  C     -196.936     306.892    -109.728
  O     -198.214     306.406    -110.091
  H     -196.850     307.934    -110.051
  H     -196.146     306.315    -110.216
  H     -196.806     306.850    -108.644
  P     -198.526     304.851    -109.860
  C     -197.096     302.753    -110.365
  O     -197.480     304.062    -110.779
  C     -195.973     302.233    -111.257
  O     -194.775     303.012    -111.060
  C     -195.582     300.791    -110.945
  O     -196.541     299.889    -111.465
  C     -194.208     300.726    -111.580
  O     -194.293     300.534    -112.995
  C     -193.646     302.127    -111.246
  N     -192.789     302.124    -110.060
  C     -191.420     301.973    -110.295
  O     -190.992     301.859    -111.445
  N     -190.568     301.934    -109.214
  C     -191.043     302.049    -108.015
  N     -190.151     302.000    -106.991
  C     -192.479     302.224    -107.724
  C     -193.286     302.248    -108.783
  O     -199.949     304.415    -110.032
  O     -197.989     304.576    -108.375
  H     -193.376     300.401    -113.306
  H     -198.696     304.734    -107.723
  H     -192.830     302.325    -106.705
  H     -194.356     302.374    -108.657
  H     -193.064     302.523    -112.084
  H     -193.620     299.908    -111.166
  H     -195.470     300.656    -109.864
  H     -196.285     302.339    -112.303
  H     -189.173     301.871    -107.236
  H     -197.980     302.116    -110.456
  H     -190.391     302.168    -106.024
  H     -196.775     302.760    -109.314
  P     -196.702     298.420    -110.835
  C     -195.061     296.483    -110.359
  O     -195.273     297.706    -111.053
  O     -197.882     297.646    -111.308
  O     -196.714     298.700    -109.257
  H     -197.574     299.093    -108.966
  H     -194.083     296.110    -110.583
  H     -195.795     295.767    -110.666
  H     -195.145     296.651    -109.306

 6  7  8  9  10  11  12  13  14  15  16  26  30  31  32  33  35 0
 6-311+G(2d,p)
 ****
 37  38 0
 6-311+G(2d,p)
 ****
 1  2  3  4  5  17  18  19  20  21  22  23  24  25 0
 3-21G
 ****
 27  28  29  34  36  39  40  41  42  43  44  45  46 0
 3-21G
 ****


