%nproc=1
%NoSave
%Mem=1900MB
#P OB98/GEN NMR

erre ene a

0 1
  C     -199.419     215.095     864.340
  O     -200.116     215.899     865.277
  H     -199.480     214.053     864.663
  H     -198.365     215.386     864.292
  H     -199.873     215.180     863.352
  P     -200.122     217.487     865.070
  C     -202.583     217.430     864.298
  O     -201.656     217.963     865.226
  C     -204.000     217.943     864.612
  O     -204.448     217.273     865.814
  C     -204.032     219.463     864.860
  O     -204.999     220.144     864.064
  C     -204.174     219.566     866.377
  O     -204.787     220.755     866.838
  C     -204.914     218.275     866.745
  N     -204.701     217.844     868.123
  C     -205.467     218.454     869.119
  O     -206.321     219.316     868.923
  N     -205.225     218.021     870.411
  C     -204.302     217.087     870.775
  O     -204.140     216.740     871.942
  C     -203.508     216.499     869.690
  C     -203.736     216.894     868.429
  O     -199.439     217.979     863.833
  O     -199.431     218.054     866.393
  H     -204.164     221.496     866.690
  H     -198.509     218.306     866.200
  H     -205.781     218.451     871.132
  H     -202.773     215.751     869.939
  H     -203.177     216.469     867.604
  H     -205.994     218.398     866.597
  H     -203.160     219.538     866.820
  H     -203.080     219.933     864.558
  H     -204.670     217.653     863.797
  H     -202.553     216.351     864.361
  H     -202.314     217.731     863.272
  P     -204.939     221.692     863.674
  C     -204.222     221.392     861.165
  O     -205.210     221.824     862.106
  O     -203.769     222.455     864.237
  O     -206.284     222.290     864.350
  H     -206.068     223.214     864.612
  H     -204.580     221.558     860.170
  H     -204.028     220.349     861.305
  H     -203.319     221.946     861.316

 6  7  8  9  10  11  12  13  14  15  16  26  31  32  33  34  35 0
 6-311+G(2d,p)
 ****
 36  37 0
 6-311+G(2d,p)
 ****
 1  2  3  4  5  17  18  19  20  21  22  23  24  25 0
 3-21G
 ****
 27  28  29  30  38  39  40  41  42  43  44  45 0
 3-21G
 ****


