%nproc=1
%NoSave
%Mem=1900MB
#P OB98/GEN NMR

erre ene a

0 1
  C        1.079    -240.057    -492.297
  O        0.037    -239.361    -492.963
  P        0.301    -238.619    -494.362
  C       -2.095    -239.391    -494.948
  O       -1.158    -238.321    -494.954
  C       -3.441    -238.903    -495.476
  O       -3.290    -238.441    -496.834
  C       -4.526    -239.971    -495.521
  O       -5.050    -240.221    -494.224
  C       -5.500    -239.351    -496.514
  O       -6.308    -238.355    -495.868
  C       -4.542    -238.677    -497.518
  N       -4.341    -239.467    -498.727
  C       -5.465    -239.670    -499.534
  O       -6.557    -239.193    -499.232
  N       -5.319    -240.387    -500.695
  C       -4.161    -240.879    -501.013
  N       -4.062    -241.521    -502.208
  C       -2.965    -240.736    -500.164
  C       -3.123    -240.021    -499.052
  O        1.215    -239.341    -495.293
  O        0.812    -237.165    -493.954
  H       -6.938    -238.832    -495.294
  H        1.792    -237.109    -493.828
  H       -2.023    -241.175    -500.464
  H       -2.289    -239.852    -498.385
  H       -4.925    -237.690    -497.801
  H       -6.175    -240.079    -496.977
  H       -4.126    -240.905    -495.931
  H       -3.764    -238.054    -494.859
  H       -4.856    -241.443    -502.833
  H       -2.218    -239.739    -493.917
  H       -3.164    -241.673    -502.652
  H       -1.707    -240.213    -495.555
  P       -5.940    -241.540    -494.026
  C       -5.523    -241.292    -491.480
  O       -6.471    -241.486    -492.512
  O       -4.858    -242.716    -494.029
  O       -6.992    -241.735    -495.066
  H       -4.844    -243.163    -494.896
  H       -6.056    -241.044    -490.559
  H       -4.843    -240.470    -491.725
  H       -4.953    -242.212    -491.319
  H        0.702    -240.479    -491.389
  H        1.875    -239.378    -492.072
  H        1.446    -240.839    -492.928

 3  4  5  6  7  8  9  10  11  12  13  23  27  28  29  30  32 0
 6-311+G(2d,p)
 ****
 34  35 0
 6-311+G(2d,p)
 ****
 1  2  14  15  16  17  18  19  20  21  22  24  25  26 0
 3-21G
 ****
 31  33  36  37  38  39  40  41  42  43  44  45  46 0
 3-21G
 ****


