%nproc=1
%NoSave
%Mem=1900MB
#P OB98/GEN NMR

erre ene a

0 1
  C     -343.939     430.603     249.225
  O     -344.848     431.623     248.860
  H     -344.467     429.649     249.228
  H     -343.537     430.789     250.228
  H     -343.123     430.550     248.496
  P     -344.280     433.124     248.848
  C     -345.176     435.120     250.216
  O     -344.780     433.753     250.244
  C     -345.638     435.567     251.613
  O     -346.885     434.906     251.917
  C     -344.640     435.218     252.727
  O     -344.651     436.265     253.705
  C     -345.230     433.953     253.330
  O     -344.793     433.741     254.669
  C     -346.723     434.228     253.184
  N     -348.471     430.532     256.236
  C     -347.879     431.722     256.498
  N     -347.469     432.663     255.615
  C     -347.775     432.295     254.352
  C     -348.367     431.118     253.932
  C     -348.720     430.199     254.937
  N     -349.285     428.978     254.683
  N     -348.469     431.100     252.550
  C     -347.944     432.241     252.152
  N     -347.491     432.991     253.206
  O     -344.610     433.929     247.637
  O     -342.718     432.890     249.114
  H     -345.128     434.478     255.229
  H     -342.573     432.259     249.844
  H     -347.709     431.944     257.547
  H     -347.859     432.572     251.113
  H     -347.121     434.874     253.972
  H     -344.934     433.079     252.741
  H     -343.624     435.060     252.357
  H     -345.840     436.640     251.580
  H     -345.999     435.259     249.500
  H     -349.508     428.380     255.471
  H     -349.487     428.711     253.730
  H     -344.321     435.719     249.883
  P     -343.257     436.870     254.201
  C     -341.753     436.774     256.304
  O     -342.913     436.264     255.657
  O     -343.118     438.358     254.092
  O     -342.182     436.136     253.255
  H     -341.508     436.777     252.976
  H     -341.635     436.296     257.254
  H     -341.859     437.829     256.446
  H     -340.893     436.580     255.698

 6  7  8  9  10  11  12  13  14  15  25  28  32  33  34  35 0
 6-311+G(2d,p)
 ****
 36  39  40 0
 6-311+G(2d,p)
 ****
 1  2  3  4  5  16  17  18  19  20  21  22  23  24 0
 3-21G
 ****
 26  27  29  30  31  37  38  41  42  43  44  45  46  47 0
 3-21G
 ****
 48 0
 3-21G
 ****


