%nproc=1
%NoSave
%Mem=1900MB
#P OB98/GEN NMR

erre ene a

0 1
  C     -127.243     206.376     134.623
  O     -128.166     205.321     134.842
  P     -127.803     203.872     134.249
  C     -129.209     204.197     132.078
  O     -127.930     203.983     132.653
  C     -129.083     204.476     130.579
  O     -130.417     204.610     130.019
  C     -128.311     205.751     130.224
  O     -127.644     205.506     128.979
  C     -129.414     206.775     130.018
  O     -128.995     207.884     129.229
  C     -130.489     205.903     129.376
  N     -133.957     209.015     127.404
  C     -132.658     208.764     126.998
  N     -132.253     209.391     125.871
  N     -131.836     207.974     127.636
  C     -132.387     207.406     128.735
  C     -133.644     207.603     129.260
  C     -134.556     208.451     128.525
  O     -135.740     208.633     128.800
  N     -133.812     206.923     130.436
  C     -132.686     206.250     130.579
  N     -131.811     206.473     129.550
  O     -129.069     202.989     134.670
  O     -126.510     203.284     134.720
  H     -129.748     208.509     129.167
  H     -128.909     202.525     135.513
  H     -134.551     209.619     126.862
  H     -132.451     205.590     131.397
  H     -130.327     205.760     128.300
  H     -129.746     207.157     130.992
  H     -132.843     209.990     125.315
  H     -127.589     206.054     130.990
  H     -131.318     209.201     125.535
  H     -128.618     203.603     130.102
  H     -129.672     205.064     132.554
  H     -129.842     203.322     132.258
  P     -126.059     205.265     129.011
  C     -125.609     207.653     128.116
  O     -125.353     206.694     129.123
  O     -125.738     204.812     127.507
  O     -125.603     204.228     129.984
  H     -124.991     204.185     127.506
  H     -125.408     208.650     128.514
  H     -126.652     207.614     127.776
  H     -124.946     207.473     127.262
  H     -127.615     207.274     135.071
  H     -127.118     206.528     133.571
  H     -126.301     206.122     135.062

 3  4  5  6  7  8  9  10  11  12  23  26  30  31 0
 6-311+G(2d,p)
 ****
 33  35  36  37  38 0
 6-311+G(2d,p)
 ****
 1  2  13  14  15  16  17  18  19  20  21  22  24  25 0
 3-21G
 ****
 27  28  29  32  34  39  40  41  42  43  44  45  46  47  48  49 0
 3-21G
 ****


