%nproc=1
%NoSave
%Mem=1900MB
#P OB98/GEN NMR

erre ene a

0 1
  C      -91.207    1734.498    -639.135
  O      -91.347    1733.612    -640.242
  P      -90.513    1732.234    -640.272
  C      -92.088    1730.384    -641.120
  O      -91.512    1731.021    -639.978
  C      -93.486    1729.840    -640.826
  O      -93.435    1728.858    -639.740
  C      -94.517    1730.893    -640.445
  O      -95.787    1730.487    -641.008
  C      -94.547    1730.798    -638.948
  O      -95.716    1731.372    -638.371
  C      -94.404    1729.268    -638.769
  N      -93.973    1728.892    -637.410
  C      -94.890    1729.063    -636.397
  O      -95.976    1729.627    -636.622
  N      -94.558    1728.619    -635.116
  C      -93.353    1728.212    -634.883
  N      -93.064    1727.782    -633.628
  C      -92.299    1728.180    -635.930
  C      -92.683    1728.520    -637.152
  O      -89.255    1732.255    -639.454
  O      -90.177    1732.046    -641.832
  H      -95.713    1732.347    -638.547
  H      -89.305    1731.644    -641.913
  H      -91.277    1727.910    -635.671
  H      -91.983    1728.510    -637.975
  H      -95.358    1728.764    -638.988
  H      -93.677    1731.311    -638.503
  H      -94.283    1731.908    -640.799
  H      -93.830    1729.297    -641.723
  H      -93.790    1727.830    -632.927
  H      -91.427    1729.573    -641.432
  H      -92.154    1727.383    -633.378
  H      -92.097    1731.096    -641.956
  P      -96.169    1730.997    -642.469
  C      -95.970    1728.851    -643.906
  O      -95.401    1730.076    -643.533
  O      -95.359    1732.388    -642.569
  O      -97.644    1731.261    -642.710
  H      -95.826    1732.959    -643.203
  H      -95.469    1728.501    -644.828
  H      -97.041    1728.936    -644.099
  H      -95.800    1728.106    -643.134
  H      -91.830    1735.355    -639.283
  H      -90.186    1734.808    -639.053
  H      -91.500    1733.996    -638.237

 3  4  5  6  7  8  9  10  11  12  13  23  27  28  29  30  32 0
 6-311+G(2d,p)
 ****
 34  35 0
 6-311+G(2d,p)
 ****
 1  2  14  15  16  17  18  19  20  21  22  24  25  26 0
 3-21G
 ****
 31  33  36  37  38  39  40  41  42  43  44  45  46 0
 3-21G
 ****


