%nproc=1
%NoSave
%Mem=1900MB
#P OB98/GEN NMR

erre ene a

0 1
  C     -165.918     241.697      13.425
  O     -165.652     242.888      12.680
  P     -165.134     242.682      11.171
  C     -163.038     241.648      10.045
  O     -163.617     242.164      11.235
  C     -161.522     241.855      10.047
  O     -161.156     243.230       9.820
  C     -160.861     241.457      11.361
  O     -160.698     240.050      11.416
  C     -159.538     242.210      11.280
  O     -158.560     241.473      10.520
  C     -159.926     243.501      10.544
  N     -162.387     247.903      11.079
  C     -162.358     247.029      10.006
  N     -163.103     247.365       8.936
  N     -161.653     245.926       9.992
  C     -160.954     245.717      11.132
  C     -160.928     246.493      12.268
  C     -161.706     247.714      12.273
  O     -161.789     248.504      13.205
  N     -160.151     245.922      13.246
  C     -159.609     244.875      12.652
  N     -160.112     244.668      11.389
  O     -165.012     244.178      10.615
  O     -166.059     241.858      10.334
  H     -158.811     241.485       9.580
  H     -165.708     244.341       9.950
  H     -162.939     248.741      11.037
  H     -158.870     244.224      13.098
  H     -159.170     243.783       9.802
  H     -159.100     242.369      12.270
  H     -163.670     248.197       8.881
  H     -161.453     241.824      12.207
  H     -163.097     246.737       8.140
  H     -161.107     241.256       9.226
  H     -163.477     242.139       9.173
  H     -163.288     240.586       9.965
  P     -161.849     239.190      12.128
  C     -162.818     239.061      14.533
  O     -161.751     239.468      13.700
  O     -161.331     237.684      11.969
  O     -163.209     239.360      11.530
  H     -162.073     237.111      11.698
  H     -162.421     238.827      15.524
  H     -163.322     238.176      14.136
  H     -163.538     239.878      14.623
  H     -166.254     241.958      14.407
  H     -165.024     241.114      13.497
  H     -166.676     241.127      12.928

 3  4  5  6  7  8  9  10  11  12  23  26  30  31 0
 6-311+G(2d,p)
 ****
 33  35  36  37  38 0
 6-311+G(2d,p)
 ****
 1  2  13  14  15  16  17  18  19  20  21  22  24  25 0
 3-21G
 ****
 27  28  29  32  34  39  40  41  42  43  44  45  46  47  48  49 0
 3-21G
 ****


