%nproc=1
%NoSave
%Mem=1900MB
#P OB98/GEN NMR

erre ene a

0 1
  C      190.003       6.494     246.174
  O      190.752       5.991     247.264
  H      190.064       7.586     246.179
  H      188.955       6.199     246.270
  H      190.412       6.122     245.230
  P      190.809       4.396     247.422
  C      188.815       4.304     249.086
  O      190.198       4.063     248.867
  C      188.237       3.204     249.973
  O      188.095       1.983     249.208
  C      189.118       2.842     251.159
  O      189.006       3.773     252.221
  C      188.586       1.459     251.508
  O      187.415       1.540     252.330
  C      188.236       0.879     250.134
  N      189.076      -3.931     248.639
  C      187.944      -3.273     248.974
  N      187.803      -1.988     249.352
  C      188.989      -1.353     249.331
  C      190.222      -1.890     249.008
  C      190.245      -3.246     248.646
  N      191.401      -3.923     248.329
  N      191.215      -0.937     249.145
  C      190.590       0.155     249.536
  N      189.243      -0.048     249.659
  O      192.374       4.106     247.593
  O      190.222       3.627     246.288
  H      187.646       2.124     253.081
  H      192.744       3.802     246.743
  H      187.033      -3.864     248.946
  H      191.063       1.105     249.748
  H      187.276       0.340     250.143
  H      189.333       0.881     252.049
  H      190.160       2.745     250.837
  H      187.239       3.513     250.310
  H      188.289       4.306     248.126
  H      188.696       5.284     249.559
  H      191.351      -4.909     248.144
  H      192.288      -3.450     248.440
  P      190.308       4.639     252.590
  C      191.965       2.755     253.315
  O      191.114       3.826     253.708
  O      189.718       5.896     253.379
  O      191.129       5.054     251.414
  H      190.243       6.695     253.174
  H      192.422       2.326     254.182
  H      192.724       3.125     252.658
  H      191.389       2.009     252.809

 6  7  8  9  10  11  12  13  14  15  25  28  32  33  34  35 0
 6-311+G(2d,p)
 ****
 36  37  40 0
 6-311+G(2d,p)
 ****
 1  2  3  4  5  16  17  18  19  20  21  22  23  24 0
 3-21G
 ****
 26  27  29  30  31  38  39 41  42  43  44  45  46  47  48 0
 3-21G
 ****


