%nproc=1
%NoSave
%Mem=1900MB
#P OB98/GEN NMR

erre ene a

0 1
  C      166.171     -75.472    -180.224
  O      166.497     -74.148    -180.588
  H      165.360     -75.822    -180.866
  H      165.830     -75.498    -179.186
  H      167.028     -76.140    -180.350
  P      167.839     -73.492    -180.010
  C      166.842     -71.153    -180.441
  O      167.942     -72.026    -180.654
  C      166.720     -70.140    -181.582
  O      166.076     -70.787    -182.717
  C      165.886     -68.898    -181.227
  O      166.413     -67.800    -181.984
  C      164.517     -69.288    -181.748
  O      163.679     -68.162    -181.895
  C      164.898     -70.020    -183.037
  N      163.814     -70.860    -183.545
  C      163.075     -70.348    -184.602
  O      163.274     -69.234    -185.090
  N      162.059     -71.138    -185.067
  C      161.680     -72.338    -184.538
  O      160.740     -72.991    -184.974
  C      162.471     -72.811    -183.392
  C      163.490     -72.064    -182.954
  O      169.074     -74.320    -180.143
  O      167.495     -73.176    -178.478
  H      164.104     -67.497    -182.480
  H      168.305     -73.232    -177.934
  H      161.519     -70.784    -185.840
  H      162.191     -73.756    -182.944
  H      164.090     -72.386    -182.112
  H      165.168     -69.303    -183.825
  H      164.021     -69.975    -181.052
  H      165.891     -68.666    -180.161
  H      167.728     -69.857    -181.909
  H      167.006     -70.628    -179.493
  H      165.920     -71.740    -180.365
  P      166.388     -66.293    -181.432
  C      165.400     -65.221    -183.556
  O      166.519     -65.285    -182.673
  O      167.359     -66.030    -180.326
  O      164.884     -66.069    -180.928
  H      164.871     -65.408    -180.211
  H      165.603     -64.520    -184.339
  H      164.534     -64.907    -183.012
  H      165.224     -66.188    -183.979

 6  7  8  9  10  11  12  13  14  15  16  26  31  32  33  34  35 0
 6-311+G(2d,p)
 ****
 36  37 0
 6-311+G(2d,p)
 ****
 1  2  3  4  5  17  18  19  20  21  22  23  24  25 0
 3-21G
 ****
 27  28  29  30  38  39  40  41  42  43  44  45 0
 3-21G
 ****


