%nproc=1
%NoSave
%Mem=1900MB
#P OB98/GEN NMR

erre ene a

0 1
  C        1.432     246.000    -118.283
  O        0.881     245.286    -119.393
  P       -0.707     245.128    -119.519
  C       -2.619     243.983    -118.206
  O       -1.218     244.048    -118.451
  C       -2.956     242.708    -117.425
  O       -2.789     241.525    -118.243
  C       -2.038     242.485    -116.230
  O       -2.178     243.377    -115.145
  C       -2.233     241.005    -115.946
  O       -3.400     240.770    -115.158
  C       -2.415     240.436    -117.372
  N       -1.222     239.748    -117.863
  C       -1.185     238.371    -117.663
  O       -2.066     237.750    -117.073
  N       -0.072     237.730    -118.136
  C        0.997     238.321    -118.744
  O        1.980     237.702    -119.129
  C        0.911     239.782    -118.907
  C       -0.176     240.419    -118.466
  O       -1.232     244.951    -120.903
  O       -1.248     246.507    -118.893
  H       -4.172     241.038    -115.692
  H       -1.995     246.811    -119.443
  H       -0.031     236.731    -118.008
  H        1.742     240.286    -119.379
  H       -0.260     241.494    -118.575
  H       -3.247     239.719    -117.395
  H       -1.385     240.585    -115.395
  H       -1.001     242.604    -116.577
  H       -4.004     242.753    -117.122
  H       -3.161     244.001    -119.153
  H       -2.925     244.878    -117.655
  P       -1.076     244.475    -114.761
  C        1.502     244.528    -114.492
  O        0.338     243.738    -114.600
  O       -1.443     245.483    -113.723
  O       -0.887     245.238    -116.165
  H       -0.687     246.174    -115.982
  H        2.367     243.865    -114.408
  H        1.456     245.157    -113.600
  H        1.626     245.150    -115.382
  H        2.499     246.007    -118.358
  H        1.142     245.521    -117.371
  H        1.067     247.006    -118.289

 3  4  5  6  7  8  9  10  11  12  13  23  28  29  30  31  32 0
 6-311+G(2d,p)
 ****
 33  34 0
 6-311+G(2d,p)
 ****
 1  2  14  15  16  17  18  19  20  21  22  24  25  26  27 0
 3-21G
 ****
 35  36  37  38  39  40  41  42  43  44  45 0
 3-21G
 ****


