%nproc=1
%NoSave
%Mem=1900MB
#P OB98/GEN NMR

erre ene a

0 1
  C      258.741     637.365    -283.419
  O      259.972     637.454    -284.121
  P      260.644     638.910    -284.254
  C      259.863     639.119    -286.718
  O      260.960     639.121    -285.811
  C      260.152     638.231    -287.940
  O      261.234     638.823    -288.704
  C      260.553     636.797    -287.580
  O      259.983     635.928    -288.568
  C      262.062     636.803    -287.740
  O      262.568     635.489    -288.001
  C      262.240     637.806    -288.884
  N      263.581     638.381    -288.915
  C      264.073     638.790    -290.161
  O      263.413     638.585    -291.178
  N      265.319     639.365    -290.224
  C      266.054     639.422    -289.162
  N      267.281     640.008    -289.275
  C      265.620     638.895    -287.845
  C      264.378     638.411    -287.797
  O      262.095     638.685    -283.611
  O      259.887     640.005    -283.580
  H      263.551     635.527    -287.991
  H      262.412     639.500    -283.172
  H      266.286     638.938    -287.000
  H      263.967     638.019    -286.866
  H      262.049     637.321    -289.862
  H      262.533     637.179    -286.822
  H      260.212     636.490    -286.587
  H      259.263     638.234    -288.578
  H      267.557     640.348    -290.190
  H      259.694     640.138    -287.081
  H      267.918     640.102    -288.492
  H      258.960     638.779    -286.203
  P      260.391     634.376    -288.524
  C      261.964     634.812    -290.513
  O      260.892     634.040    -290.011
  O      258.957     633.670    -288.497
  O      261.247     633.903    -287.398
  H      259.068     632.702    -288.401
  H      262.290     634.386    -291.471
  H      262.810     634.798    -289.813
  H      261.640     635.846    -290.683
  H      258.410     636.348    -283.407
  H      258.008     637.973    -283.907
  H      258.878     637.708    -282.415

 3  4  5  6  7  8  9  10  11  12  13  21  23  27  28  29  30  32 0
 6-311+G(2d,p)
 ****
 34  35 0
 6-311+G(2d,p)
 ****
 1  2  14  15  16  17  18  19  20  22  24  25  26 0
 3-21G
 ****
 31  33  36  37  38  39  40  41  42  43  44  45  46 0
 3-21G
 ****


