%nproc=1
%NoSave
%Mem=1900MB
#P OB98/GEN NMR

erre ene a

0 1
  C      180.860      51.453     -43.995
  O      181.552      50.396     -43.362
  H      179.817      51.438     -43.661
  H      180.877      51.329     -45.081
  H      181.300      52.415     -43.723
  P      183.088      50.150     -43.745
  C      185.220      51.616     -43.658
  O      183.797      51.588     -43.718
  C      185.759      52.900     -44.289
  O      185.533      52.892     -45.711
  C      185.099      54.174     -43.771
  O      185.573      54.490     -42.477
  C      185.484      55.152     -44.867
  O      186.843      55.592     -44.713
  C      185.335      54.265     -46.129
  N      184.053      54.421     -46.806
  C      184.037      55.299     -47.896
  O      185.060      55.899     -48.227
  N      182.852      55.484     -48.570
  C      181.791      54.824     -48.219
  N      180.655      55.049     -48.929
  C      181.779      53.864     -47.096
  C      182.925      53.721     -46.436
  O      183.337      49.361     -44.995
  O      183.697      49.422     -42.456
  H      186.979      56.289     -45.384
  H      183.667      48.454     -42.564
  H      180.874      53.328     -46.845
  H      182.999      53.034     -45.598
  H      186.132      54.492     -46.851
  H      184.856      56.044     -44.865
  H      184.010      54.062     -43.774
  H      186.845      52.927     -44.126
  H      180.720      55.705     -49.704
  H      185.583      50.744     -44.214
  H      179.824      54.479     -48.851
  H      185.564      51.532     -42.621
  P      184.743      55.439     -41.486
  C      182.666      55.058     -40.017
  O      183.372      54.655     -41.180
  O      184.573      56.846     -41.948
  O      185.530      55.314     -40.098
  H      186.355      55.862     -40.118
  H      181.777      54.470     -39.918
  H      182.403      56.092     -40.100
  H      183.286      54.916     -39.156

 6  7  8  9  10  11  12  13  14  15  16  26  30  31  32  33  35 0
 6-311+G(2d,p)
 ****
 37  38 0
 6-311+G(2d,p)
 ****
 1  2  3  4  5  17  18  19  20  21  22  23  24  25 0
 3-21G
 ****
 27  28  29  34  36  39  40  41  42  43  44  45  46 0
 3-21G
 ****


