%nproc=1
%NoSave
%Mem=1900MB
#P OB98/GEN NMR

erre ene a

0 1
  C      -26.934     135.418      -6.365
  O      -27.398     136.294      -7.371
  H      -25.915     135.704      -6.094
  H      -26.919     134.391      -6.740
  H      -27.563     135.479      -5.474
  P      -28.932     136.209      -7.821
  C      -29.806     137.561      -5.803
  O      -29.664     137.499      -7.213
  C      -31.243     137.226      -5.385
  O      -31.279     137.066      -3.934
  C      -32.276     138.312      -5.745
  O      -33.526     137.644      -5.967
  C      -32.300     139.121      -4.461
  O      -33.369     140.031      -4.414
  C      -32.290     137.973      -3.443
  N      -32.008     138.360      -2.066
  C      -33.071     138.812      -1.291
  O      -34.233     138.904      -1.684
  N      -32.759     139.174      -0.007
  C      -31.523     139.115       0.567
  O      -31.309     139.423       1.732
  C      -30.439     138.636      -0.304
  C      -30.726     138.281      -1.558
  O      -29.616     134.911      -7.556
  O      -28.883     136.538      -9.389
  H      -28.960     135.709      -9.899
  H      -33.240     140.711      -5.110
  H      -33.517     139.500       0.570
  H      -29.444     138.588       0.116
  H      -29.950     137.915      -2.220
  H      -33.244     137.437      -3.475
  H      -31.391     139.722      -4.382
  H      -32.005     138.883      -6.637
  H      -31.520     136.257      -5.818
  H      -29.556     138.577      -5.479
  H      -29.106     136.858      -5.340
  P      -34.054     137.216      -7.421
  C      -32.368     135.584      -8.515
  O      -33.539     135.724      -7.719
  O      -33.718     138.193      -8.499
  O      -35.638     137.052      -7.264
  H      -36.069     137.205      -8.126
  H      -32.139     134.545      -8.634
  H      -31.549     136.077      -8.034
  H      -32.535     136.024      -9.476

 6  7  8  9  10  11  12  13  14  15  16  27  31  32  33  34  35 0
 6-311+G(2d,p)
 ****
 36  37 0
 6-311+G(2d,p)
 ****
 1  2  3  4  5  17  18  19  20  21  22  23  24  25 0
 3-21G
 ****
 26  28  29  30  38  39  40  41  42  43  44  45 0
 3-21G
 ****


