%nproc=1
%NoSave
%Mem=1900MB
#P OB98/GEN NMR

erre ene a

0 1
  C      -65.895     840.326    -502.704
  O      -65.100     840.169    -503.864
  H      -66.490     841.239    -502.806
  H      -65.272     840.423    -501.807
  H      -66.572     839.474    -502.591
  P      -64.021     838.983    -503.884
  C      -66.013     837.383    -504.282
  O      -64.835     837.653    -503.533
  C      -65.835     836.123    -505.117
  O      -64.623     836.211    -505.898
  C      -65.683     834.861    -504.275
  O      -66.941     834.452    -503.765
  C      -65.046     833.921    -505.274
  O      -66.017     833.367    -506.174
  C      -64.082     834.872    -506.023
  N      -62.712     834.810    -505.515
  C      -61.817     834.056    -506.274
  O      -62.180     833.505    -507.313
  N      -60.520     833.938    -505.832
  C      -60.158     834.524    -504.736
  N      -58.867     834.373    -504.341
  C      -61.074     835.338    -503.908
  C      -62.329     835.428    -504.355
  O      -62.777     839.186    -503.070
  O      -63.692     838.808    -505.444
  H      -66.713     832.979    -505.607
  H      -62.950     839.382    -505.704
  H      -60.727     835.811    -503.003
  H      -63.061     836.007    -503.803
  H      -64.064     834.635    -507.097
  H      -64.541     833.093    -504.779
  H      -64.974     835.034    -503.463
  H      -66.674     836.040    -505.812
  H      -58.271     833.799    -504.938
  H      -66.181     838.246    -504.936
  H      -58.446     834.852    -503.559
  H      -66.883     837.276    -503.622
  P      -67.024     833.524    -502.459
  C      -66.063     835.463    -501.059
  O      -65.919     834.101    -501.449
  O      -66.960     832.057    -502.718
  O      -68.404     833.990    -501.775
  H      -69.184     833.635    -502.274
  H      -65.272     835.728    -500.389
  H      -67.005     835.596    -500.568
  H      -66.021     836.089    -501.926

 6  7  8  9  10  11  12  13  14  15  16  26  30  31  32  33  35 0
 6-311+G(2d,p)
 ****
 37  38 0
 6-311+G(2d,p)
 ****
 1  2  3  4  5  17  18  19  20  21  22  23  24  25 0
 3-21G
 ****
 27  28  29  34  36  39  40  41  42  43  44  45  46 0
 3-21G
 ****


