%nproc=1
%NoSave
%Mem=1900MB
#P OB98/GEN NMR

erre ene a

0 1
  C      -74.178     -39.730     192.705
  O      -73.133     -40.143     191.843
  P      -72.038     -41.201     192.327
  C      -70.467     -39.323     193.274
  O      -71.166     -40.532     193.482
  C      -69.107     -39.405     193.980
  O      -69.267     -39.954     195.305
  C      -68.132     -40.297     193.214
  O      -67.318     -39.520     192.354
  C      -67.360     -40.977     194.328
  O      -66.319     -40.113     194.821
  C      -68.458     -41.159     195.402
  N      -69.359     -42.322     195.287
  C      -68.862     -43.603     195.517
  O      -67.705     -43.837     195.849
  N      -69.755     -44.629     195.325
  C      -71.068     -44.492     194.978
  O      -71.781     -45.404     194.578
  C      -71.589     -43.122     195.018
  C      -70.725     -42.118     195.143
  O      -71.027     -41.267     191.091
  O      -72.565     -42.551     192.692
  H      -66.745     -39.306     195.158
  H      -71.216     -42.044     190.530
  H      -69.364     -45.564     195.356
  H      -72.655     -42.975     194.889
  H      -71.083     -41.091     195.137
  H      -68.024     -41.186     196.407
  H      -66.863     -41.877     193.971
  H      -68.681     -41.063     192.649
  H      -68.698     -38.391     194.082
  H      -71.050     -38.480     193.668
  H      -70.327     -39.146     192.204
  P      -67.010     -40.036     190.871
  C      -64.936     -41.265     191.749
  O      -66.167     -41.389     191.065
  O      -66.408     -39.032     189.946
  O      -68.442     -40.538     190.356
  H      -68.860     -39.839     189.807
  H      -64.554     -42.263     191.970
  H      -65.072     -40.717     192.687
  H      -64.212     -40.740     191.115
  H      -74.801     -39.023     192.197
  H      -73.761     -39.275     193.579
  H      -74.762     -40.580     192.990

 3  4  5  6  7  8  9  10  11  12  13  23  28  29  30  31  32 0
 6-311+G(2d,p)
 ****
 33  34 0
 6-311+G(2d,p)
 ****
 1  2  14  15  16  17  18  19  20  21  22  24  25  26  27 0
 3-21G
 ****
 35  36  37  38  39  40  41  42  43  44  45 0
 3-21G
 ****


