%nproc=1
%NoSave
%Mem=1900MB
#P OB98/GEN NMR

erre ene a

0 1
  C     -231.270    -137.233    -364.260
  O     -231.674    -135.981    -363.739
  H     -231.984    -137.537    -365.029
  H     -231.259    -137.987    -363.469
  H     -230.278    -137.143    -364.711
  P     -230.776    -135.368    -362.560
  C     -232.337    -134.466    -360.714
  O     -231.676    -134.182    -361.948
  C     -233.649    -133.676    -360.625
  O     -234.656    -134.367    -361.409
  C     -234.180    -133.541    -359.198
  O     -234.758    -132.244    -359.029
  C     -235.268    -134.600    -359.121
  O     -236.260    -134.288    -358.139
  C     -235.796    -134.609    -360.557
  N     -239.766    -137.657    -359.581
  C     -239.487    -136.394    -359.205
  N     -238.403    -135.645    -359.526
  C     -237.595    -136.321    -360.364
  C     -237.747    -137.612    -360.825
  C     -238.899    -138.306    -360.395
  N     -239.181    -139.601    -360.755
  N     -236.678    -137.973    -361.630
  C     -235.904    -136.902    -361.656
  N     -236.405    -135.886    -360.888
  O     -229.386    -134.983    -362.938
  O     -230.890    -136.504    -361.439
  H     -236.819    -133.566    -358.497
  H     -231.812    -136.823    -361.349
  H     -240.218    -135.917    -358.555
  H     -234.967    -136.819    -362.202
  H     -236.544    -133.831    -360.747
  H     -234.825    -135.565    -358.861
  H     -233.407    -133.704    -358.446
  H     -233.507    -132.693    -361.092
  H     -231.697    -134.195    -359.869
  H     -240.034    -140.014    -360.410
  H     -238.557    -140.093    -361.380
  H     -232.535    -135.537    -360.676
  P     -234.445    -131.443    -357.676
  C     -236.989    -131.179    -357.285
  O     -235.723    -130.518    -357.322
  O     -233.126    -130.751    -357.615
  O     -234.544    -132.593    -356.564
  H     -233.863    -132.428    -355.879
  H     -237.754    -130.471    -357.042
  H     -236.968    -131.949    -356.543
  H     -237.194    -131.611    -358.242

 6  7  8  9  10  11  12  13  14  15  25  28  32  33  34  35 0
 6-311+G(2d,p)
 ****
 36  39  40 0
 6-311+G(2d,p)
 ****
 1  2  3  4  5  16  17  18  19  20  21  22  23  24 0
 3-21G
 ****
 26  27  29  30  31  37  38  41  42  43  44  45  46  47 0
 3-21G
 ****
 48 0
 3-21G
 ****


