%nproc=1
%NoSave
%Mem=1900MB
#P OB98/GEN NMR

erre ene a

0 1
  C      129.664      44.878      49.116
  O      131.000      44.951      48.661
  H      129.672      44.681      50.191
  H      129.140      44.060      48.615
  H      129.140      45.821      48.937
  P      131.279      45.431      47.156
  C      132.587      43.386      46.284
  O      131.361      44.108      46.255
  C      132.445      42.089      45.491
  O      131.414      41.261      46.069
  C      132.042      42.294      44.033
  O      133.145      42.741      43.264
  C      131.538      40.901      43.682
  O      132.631      40.018      43.395
  C      130.826      40.492      44.994
  N      129.379      40.681      44.946
  C      128.602      39.527      44.896
  O      129.086      38.395      44.851
  N      127.244      39.716      44.878
  C      126.606      40.922      44.822
  O      125.385      41.036      44.755
  C      127.476      42.108      44.845
  C      128.798      41.936      44.905
  O      132.416      46.383      46.978
  O      129.889      46.085      46.706
  H      133.213      40.030      44.182
  H      129.946      47.057      46.771
  H      126.669      38.889      44.829
  H      127.004      43.079      44.795
  H      129.457      42.798      44.915
  H      131.025      39.436      45.219
  H      130.892      40.899      42.801
  H      131.206      43.000      43.964
  H      133.396      41.540      45.560
  H      132.832      43.150      47.325
  H      133.377      44.013      45.864
  P      132.923      43.688      41.994
  C      132.697      41.753      40.326
  O      132.047      42.866      40.924
  O      134.163      44.307      41.436
  O      131.902      44.806      42.516
  H      132.377      45.651      42.649
  H      132.031      41.280      39.635
  H      132.979      41.054      41.086
  H      133.571      42.087      39.807

 6  7  8  9  10  11  12  13  14  15  16  26  31  32  33  34  35 0
 6-311+G(2d,p)
 ****
 36  37 0
 6-311+G(2d,p)
 ****
 1  2  3  4  5  17  18  19  20  21  22  23  24  25 0
 3-21G
 ****
 27  28  29  30  38  39  40  41  42  43  44  45 0
 3-21G
 ****


