%nproc=1
%NoSave
%Mem=1900MB
#P OB98/GEN NMR

erre ene a

0 1
  C       32.759    -129.034     137.554
  O       34.008    -129.711     137.635
  P       35.269    -129.061     136.876
  C       35.474    -130.883     135.049
  O       36.069    -130.268     136.175
  C       36.353    -132.023     134.514
  O       35.648    -132.676     133.419
  C       37.718    -131.580     133.979
  O       38.643    -132.642     134.249
  C       37.493    -131.487     132.479
  O       38.712    -131.563     131.746
  C       36.542    -132.668     132.271
  N       36.811    -132.537     127.163
  C       37.759    -132.691     128.110
  N       37.615    -132.713     129.458
  C       36.322    -132.555     129.793
  C       35.249    -132.361     128.940
  C       35.524    -132.351     127.561
  N       34.557    -132.209     126.596
  N       34.072    -132.215     129.664
  C       34.432    -132.321     130.926
  N       35.782    -132.556     131.042
  O       36.225    -128.632     138.090
  O       34.956    -127.897     135.997
  H       38.505    -131.432     130.800
  H       36.269    -127.659     138.149
  H       38.785    -132.813     127.741
  H       33.774    -132.235     131.771
  H       37.076    -133.631     132.255
  H       36.999    -130.541     132.238
  H       38.082    -130.639     134.407
  H       36.467    -132.767     135.308
  H       35.363    -130.131     134.255
  H       34.815    -132.349     125.632
  H       33.573    -132.259     126.874
  H       34.478    -131.257     135.304
  P       39.929    -132.281     135.136
  C       41.369    -130.883     133.486
  O       41.163    -132.128     134.131
  O       40.231    -133.644     135.921
  O       39.711    -131.134     136.084
  H       40.671    -133.447     136.768
  H       42.437    -130.721     133.342
  H       40.960    -130.051     134.071
  H       40.869    -130.903     132.511
  H       32.021    -129.580     138.103
  H       32.459    -128.960     136.530
  H       32.858    -128.053     137.969

 3  4  5  6  7  8  9  10  11  12  22  25  29  30  31  32 0
 6-311+G(2d,p)
 ****
 33  36  37 0
 6-311+G(2d,p)
 ****
 1  2  13  14  15  16  17  18  19  20  21  23  24  26 0
 3-21G
 ****
 27  28  34  35  38  39  40  41  42  43  44  45  46  47  48 0
 3-21G
 ****


