%nproc=1
%NoSave
%Mem=1900MB
#P OB98/GEN NMR

erre ene a

0 1
  C       30.874    -469.978     172.257
  O       29.471    -469.980     171.992
  P       28.648    -468.609     172.100
  C       29.160    -468.049     174.568
  O       29.349    -467.668     173.214
  C       29.964    -467.181     175.545
  O       29.501    -467.353     176.903
  C       31.475    -467.461     175.540
  O       32.146    -466.200     175.752
  C       31.639    -468.358     176.757
  O       32.991    -468.417     177.212
  C       30.640    -467.706     177.715
  N       30.266    -468.597     178.825
  C       30.075    -467.995     180.079
  O       30.336    -466.803     180.228
  N       29.644    -468.785     181.106
  C       29.558    -470.067     180.943
  N       29.096    -470.817     181.986
  C       29.903    -470.746     179.681
  C       30.226    -469.949     178.667
  O       27.168    -468.754     172.256
  O       29.015    -467.866     170.731
  H       33.293    -467.506     177.423
  H       28.237    -467.353     170.435
  H       29.899    -471.831     179.618
  H       30.503    -470.345     177.699
  H       31.043    -466.771     178.138
  H       31.326    -469.381     176.503
  H       31.837    -467.906     174.606
  H       29.788    -466.133     175.265
  H       28.877    -470.339     182.860
  H       29.464    -469.097     174.694
  H       28.952    -471.819     181.923
  H       28.089    -468.019     174.801
  P       33.401    -465.832     174.822
  C       35.368    -466.418     176.424
  O       34.637    -466.759     175.260
  O       33.837    -464.407     175.414
  O       33.130    -465.707     173.357
  H       34.313    -463.904     174.718
  H       35.970    -467.282     176.739
  H       34.720    -466.131     177.249
  H       36.045    -465.578     176.204
  H       31.261    -470.969     172.140
  H       31.047    -469.644     173.259
  H       31.366    -469.320     171.571

 3  4  5  6  7  8  9  10  11  12  13  23  27  28  29  30  32 0
 6-311+G(2d,p)
 ****
 34  35 0
 6-311+G(2d,p)
 ****
 1  2  14  15  16  17  18  19  20  21  22  24  25  26 0
 3-21G
 ****
 31  33  36  37  38  39  40  41  42  43  44  45  46 0
 3-21G
 ****


