%nproc=1
%NoSave
%Mem=1900MB
#P OB98/GEN NMR

erre ene a

0 1
  C     -451.861    -392.846       3.930
  O     -452.829    -393.562       3.182
  P     -453.169    -395.069       3.624
  C     -455.652    -394.744       2.938
  O     -454.470    -395.518       2.790
  C     -456.813    -395.334       2.141
  O     -456.681    -394.928       0.746
  C     -456.877    -396.876       2.153
  O     -458.267    -397.236       2.092
  C     -456.196    -397.264       0.853
  O     -456.560    -398.571       0.429
  C     -456.686    -396.138      -0.057
  N     -456.108    -397.264      -5.019
  C     -457.085    -397.564      -4.139
  N     -457.175    -397.226      -2.830
  C     -456.103    -396.503      -2.458
  C     -455.010    -396.149      -3.232
  C     -455.039    -396.551      -4.584
  N     -454.049    -396.240      -5.489
  N     -454.095    -395.434      -2.485
  C     -454.633    -395.352      -1.283
  N     -455.845    -395.962      -1.222
  O     -453.725    -394.883       5.112
  O     -452.018    -396.019       3.582
  H     -457.528    -398.606       0.303
  H     -453.095    -395.261       5.758
  H     -457.916    -398.151      -4.529
  H     -454.162    -394.869      -0.425
  H     -457.723    -396.303      -0.410
  H     -455.113    -397.228       0.981
  H     -456.404    -397.333       3.032
  H     -457.751    -394.906       2.516
  H     -455.457    -393.733       2.573
  H     -454.205    -396.445      -6.459
  H     -453.347    -395.554      -5.215
  H     -455.914    -394.682       4.005
  P     -458.791    -398.298       3.183
  C     -461.192    -397.452       3.691
  O     -460.375    -398.399       3.003
  O     -458.600    -397.514       4.576
  O     -458.051    -399.598       3.173
  H     -458.464    -398.163       5.295
  H     -462.074    -397.243       3.079
  H     -460.662    -396.515       3.883
  H     -461.512    -397.885       4.648
  H     -451.745    -391.866       3.517
  H     -450.925    -393.363       3.889
  H     -452.182    -392.769       4.948

 3  4  5  6  7  8  9  10  11  12  22  25  29  30  31  32 0
 6-311+G(2d,p)
 ****
 33  36  37 0
 6-311+G(2d,p)
 ****
 1  2  13  14  15  16  17  18  19  20  21  23  24  26 0
 3-21G
 ****
 27  28  34  35  38  39  40  41  42  43  44  45  46  47  48 0
 3-21G
 ****


