%nproc=1
%NoSave
%Mem=1900MB
#P OB98/GEN NMR

erre ene a

0 1
  C        9.761     315.732     -91.605
  O        9.534     314.756     -92.601
  H       10.160     315.238     -90.715
  H        8.825     316.233     -91.340
  H       10.490     316.465     -91.959
  P        8.892     315.271     -93.977
  C        6.426     314.915     -93.317
  O        7.459     315.863     -93.554
  C        5.062     315.515     -93.657
  O        4.817     316.637     -92.768
  C        4.964     316.038     -95.095
  O        3.643     315.805     -95.587
  C        5.181     317.533     -94.936
  O        4.634     318.279     -96.018
  C        4.520     317.784     -93.582
  N        4.165     322.863     -93.635
  C        3.431     321.899     -94.232
  N        3.582     320.561     -94.143
  C        4.580     320.251     -93.293
  C        5.412     321.122     -92.612
  C        5.178     322.494     -92.818
  N        5.940     323.485     -92.243
  N        6.343     320.420     -91.874
  C        6.071     319.146     -92.095
  N        5.025     318.999     -92.965
  O        8.864     314.278     -95.090
  O        9.740     316.598     -94.263
  H        3.670     318.102     -96.061
  H        9.821     317.151     -93.463
  H        2.624     322.246     -94.872
  H        6.607     318.304     -91.670
  H        3.429     317.887     -93.658
  H        6.255     317.750     -94.889
  H        5.694     315.586     -95.767
  H        4.286     314.770     -93.451
  H        6.436     314.602     -92.267
  H        5.703     324.444     -92.442
  H        6.697     323.233     -91.625
  H        6.624     314.037     -93.943
  P        3.364     314.507     -96.485
  C        3.113     315.812     -98.692
  O        3.834     314.810     -97.992
  O        2.001     313.914     -96.360
  O        4.484     313.478     -95.977
  H        4.089     312.589     -95.898
  H        3.518     315.920     -99.677
  H        3.195     316.742     -98.168
  H        2.083     315.529     -98.759

 6  7  8  9  10  11  12  13  14  15  25  28  32  33  34  35 0
 6-311+G(2d,p)
 ****
 36  39  40 0
 6-311+G(2d,p)
 ****
 1  2  3  4  5  16  17  18  19  20  21  22  23  24 0
 3-21G
 ****
 26  27  29  30  31  37  38  41  42  43  44  45  46  47 0
 3-21G
 ****
 48 0
 3-21G
 ****


