%nproc=1
%NoSave
%Mem=1900MB
#P OB98/GEN NMR

erre ene a

0 1
  C       54.583    -152.311    -319.651
  O       55.622    -151.851    -320.511
  P       57.139    -152.238    -320.131
  C       57.427    -150.193    -318.570
  O       57.883    -150.872    -319.723
  C       58.130    -148.837    -318.410
  O       57.532    -148.132    -317.283
  C       59.639    -148.926    -318.143
  O       60.247    -147.782    -318.759
  C       59.736    -148.788    -316.633
  O       61.034    -148.368    -316.214
  C       58.616    -147.777    -316.379
  N       57.394    -144.919    -312.309
  C       57.793    -144.585    -313.557
  N       58.106    -145.406    -314.592
  C       57.964    -146.693    -314.230
  C       57.591    -147.185    -312.992
  C       57.300    -146.237    -311.992
  N       56.878    -146.574    -310.726
  N       57.581    -148.574    -312.999
  C       57.940    -148.910    -314.224
  N       58.152    -147.798    -315.004
  O       57.775    -152.600    -321.557
  O       57.289    -153.366    -319.167
  H       61.689    -148.985    -316.597
  H       57.966    -153.556    -321.599
  H       57.880    -143.512    -313.759
  H       58.063    -149.915    -314.583
  H       58.925    -146.746    -316.615
  H       59.511    -149.749    -316.159
  H       60.101    -149.851    -318.512
  H       57.927    -148.240    -319.305
  H       57.654    -150.807    -317.686
  H       56.558    -145.840    -310.116
  H       56.621    -147.548    -310.539
  H       56.340    -150.055    -318.617
  P       61.430    -148.063    -319.806
  C       63.461    -148.661    -318.299
  O       62.802    -147.676    -319.077
  O       61.233    -146.911    -320.902
  O       61.382    -149.431    -320.427
  H       61.574    -147.215    -321.766
  H       64.539    -148.512    -318.362
  H       63.224    -149.676    -318.639
  H       63.140    -148.562    -317.256
  H       53.637    -151.980    -320.026
  H       54.734    -151.918    -318.667
  H       54.598    -153.380    -319.614

 3  4  5  6  7  8  9  10  11  12  22  25  29  30  31  32 0
 6-311+G(2d,p)
 ****
 33  36  37 0
 6-311+G(2d,p)
 ****
 1  2  13  14  15  16  17  18  19  20  21  23  24  26 0
 3-21G
 ****
 27  28  34  35  38  39  40  41  42  43  44  45  46  47  48 0
 3-21G
 ****


