%nproc=1
%NoSave
%Mem=1900MB
#P OB98/GEN NMR

erre ene a

0 1
  C      205.158     102.097      64.659
  O      206.343     102.588      65.292
  P      206.184     103.826      66.298
  C      206.505     102.300      68.385
  O      205.700     103.268      67.720
  C      206.096     102.197      69.856
  O      206.318     103.438      70.547
  C      204.620     101.892      70.046
  O      204.360     100.521      69.818
  C      204.389     102.332      71.487
  O      204.620     101.258      72.413
  C      205.433     103.456      71.681
  N      204.822     104.765      71.853
  C      205.181     105.458      73.014
  O      205.954     104.947      73.829
  N      204.636     106.698      73.233
  C      203.789     107.187      72.380
  N      203.279     108.417      72.653
  C      203.364     106.476      71.159
  C      203.913     105.280      70.960
  O      204.892     104.587      65.740
  O      207.376     104.726      66.344
  H      204.101     100.500      72.071
  H      204.973     105.547      65.890
  H      202.649     106.922      70.484
  H      203.659     104.684      70.089
  H      206.052     103.254      72.564
  H      203.359     102.665      71.642
  H      204.020     102.514      69.369
  H      206.705     101.413      70.330
  H      203.591     108.877      73.501
  H      207.558     102.572      68.309
  H      202.609     108.889      72.065
  H      206.392     101.338      67.875
  P      202.915     100.120      69.256
  C      204.216      99.104      67.290
  O      203.124      99.915      67.679
  O      202.136     101.520      69.304
  O      202.176      99.044      69.975
  H      201.199     101.391      69.073
  H      204.120      98.878      66.224
  H      204.218      98.165      67.849
  H      205.155      99.641      67.452
  H      205.409     101.277      64.020
  H      204.714     102.878      64.079
  H      204.465     101.769      65.405

 3  4  5  6  7  8  9  10  11  12  13  21  23  27  28  29  30  32 0
 6-311+G(2d,p)
 ****
 34  35 0
 6-311+G(2d,p)
 ****
 1  2  14  15  16  17  18  19  20  22  24  25  26 0
 3-21G
 ****
 31  33  36  37  38  39  40  41  42  43  44  45  46 0
 3-21G
 ****


