%nproc=1
%NoSave
%Mem=1900MB
#P OB98/GEN NMR

erre ene a

0 1
  C      504.496     559.974     273.164
  O      505.428     560.991     272.859
  H      504.952     559.002     272.930
  H      503.591     560.090     272.564
  H      504.248     559.993     274.224
  P      504.986     562.519     273.045
  C      504.402     562.869     270.556
  O      503.913     562.834     271.898
  C      503.353     563.500     269.630
  O      502.212     562.603     269.579
  C      502.863     564.873     270.136
  O      502.959     565.903     269.152
  C      501.479     564.562     270.705
  O      500.583     565.656     270.710
  C      501.017     563.371     269.866
  N      500.020     562.524     270.525
  C      498.793     562.371     269.878
  O      498.494     562.874     268.792
  N      497.879     561.591     270.540
  C      498.055     560.975     271.738
  O      497.200     560.284     272.278
  C      499.368     561.187     272.381
  C      500.275     561.946     271.751
  O      506.105     563.512     273.148
  O      504.090     562.510     274.376
  H      499.718     565.332     271.018
  H      504.619     562.852     275.125
  H      496.990     561.468     270.080
  H      499.537     560.732     273.344
  H      501.254     562.122     272.185
  H      500.602     563.703     268.910
  H      501.600     564.241     271.746
  H      503.502     565.239     270.945
  H      503.764     563.566     268.618
  H      504.611     561.843     270.251
  H      505.329     563.456     270.519
  P      504.077     567.038     269.134
  C      502.765     568.699     270.696
  O      503.928     567.900     270.466
  O      504.218     567.793     267.853
  O      505.449     566.210     269.365
  H      506.151     566.686     268.870
  H      502.855     569.197     271.639
  H      501.898     568.072     270.705
  H      502.672     569.426     269.916

 6  7  8  9  10  11  12  13  14  15  16  26  31  32  33  34  35 0
 6-311+G(2d,p)
 ****
 36  37 0
 6-311+G(2d,p)
 ****
 1  2  3  4  5  17  18  19  20  21  22  23  24  25 0
 3-21G
 ****
 27  28  29  30  38  39  40  41  42  43  44  45 0
 3-21G
 ****


