%nproc=1
%NoSave
%Mem=1900MB
#P OB98/GEN NMR

erre ene a

0 1
  C     -190.331     362.644       0.440
  O     -190.048     363.620      -0.537
  H     -191.327     362.844       0.849
  H     -189.604     362.693       1.258
  H     -190.331     361.647      -0.002
  P     -188.572     363.682      -1.174
  C     -187.960     365.942      -0.121
  O     -188.258     365.259      -1.331
  C     -188.534     367.361      -0.121
  O     -188.007     368.103      -1.254
  C     -190.067     367.410      -0.208
  O     -190.572     368.331       0.764
  C     -190.332     367.927      -1.616
  O     -191.606     368.554      -1.726
  C     -189.111     368.828      -1.834
  N     -188.877     369.140      -3.242
  C     -189.554     370.248      -3.755
  O     -190.336     370.888      -3.044
  N     -189.371     370.587      -5.075
  C     -188.614     369.854      -5.828
  N     -188.477     370.232      -7.123
  C     -187.913     368.643      -5.336
  C     -188.084     368.352      -4.043
  O     -188.393     362.879      -2.416
  O     -187.603     363.243       0.023
  H     -192.294     367.913      -1.446
  H     -186.731     362.947      -0.350
  H     -187.305     368.054      -6.001
  H     -187.599     367.487      -3.596
  H     -189.223     369.775      -1.281
  H     -190.303     367.086      -2.325
  H     -190.542     366.444      -0.042
  H     -188.171     367.884       0.775
  H     -188.971     371.065      -7.422
  H     -186.868     365.973       0.005
  H     -187.916     369.729      -7.803
  H     -188.403     365.380       0.712
  P     -190.660     367.792       2.274
  C     -193.225     367.436       2.464
  O     -192.096     368.205       2.865
  O     -189.637     368.734       3.060
  O     -190.309     366.349       2.410
  H     -188.792     368.270       3.201
  H     -194.105     367.824       2.933
  H     -193.084     366.417       2.757
  H     -193.334     367.490       1.401

 6  7  8  9  10  11  12  13  14  15  16  26  30  31  32  33  35 0
 6-311+G(2d,p)
 ****
 37  38 0
 6-311+G(2d,p)
 ****
 1  2  3  4  5  17  18  19  20  21  22  23  24  25 0
 3-21G
 ****
 27  28  29  34  36  39  40  41  42  43  44  45  46 0
 3-21G
 ****


