%nproc=1
%NoSave
%Mem=1900MB
#P OB98/GEN NMR

erre ene a

0 1
  C      220.851    -986.546     719.642
  O      221.853    -985.637     720.110
  P      221.947    -984.117     719.625
  C      222.519    -982.849     721.806
  O      222.988    -983.321     720.542
  C      223.673    -982.415     722.708
  O      224.463    -983.533     723.104
  C      224.643    -981.428     722.079
  O      224.079    -980.123     722.024
  C      225.851    -981.560     722.999
  O      225.688    -980.765     724.188
  C      225.804    -983.077     723.348
  N      226.788    -983.841     722.588
  C      228.120    -983.756     723.018
  O      228.418    -983.014     723.965
  N      229.073    -984.503     722.359
  C      228.752    -985.204     721.315
  N      229.735    -985.915     720.709
  C      227.380    -985.240     720.768
  C      226.456    -984.539     721.452
  O      220.614    -983.432     719.482
  O      222.687    -984.176     718.191
  H      226.368    -981.063     724.820
  H      222.364    -983.453     717.632
  H      227.144    -985.819     719.876
  H      225.431    -984.540     721.134
  H      225.991    -983.237     724.421
  H      226.780    -981.257     722.532
  H      224.910    -981.774     721.065
  H      223.220    -981.977     723.622
  H      230.654    -985.855     721.109
  H      221.962    -983.673     722.284
  H      229.584    -986.490     719.899
  H      221.821    -982.018     721.626
  P      224.436    -979.162     720.784
  C      222.212    -979.557     719.534
  O      223.045    -978.607     720.210
  O      225.356    -979.734     719.768
  O      225.066    -977.857     721.492
  H      225.716    -977.473     720.878
  H      221.195    -979.175     719.537
  H      222.258    -980.524     720.028
  H      222.555    -979.633     718.497
  H      220.991    -987.500     720.106
  H      220.932    -986.650     718.580
  H      219.882    -986.167     719.890

 3  4  5  6  7  8  9  10  11  12  13  23  27  28  29  30  32 0
 6-311+G(2d,p)
 ****
 34  35 0
 6-311+G(2d,p)
 ****
 1  2  14  15  16  17  18  19  20  21  22  24  25  26 0
 3-21G
 ****
 31  33  36  37  38  39  40  41  42  43  44  45  46 0
 3-21G
 ****


