%nproc=1
%NoSave
%Mem=1900MB
#P OB98/GEN NMR

erre ene a

0 1
  C      239.079    -126.225      40.885
  O      238.304    -125.635      39.861
  H      239.032    -125.594      41.777
  H      240.123    -126.309      40.565
  H      238.685    -127.214      41.137
  P      238.223    -126.426      38.470
  C      240.647    -125.701      37.875
  O      239.277    -125.721      37.487
  C      241.358    -124.537      37.183
  O      241.417    -124.776      35.757
  C      240.659    -123.200      37.349
  O      240.891    -122.613      38.615
  C      241.250    -122.409      36.193
  O      242.524    -121.843      36.537
  C      241.424    -123.479      35.110
  N      239.173    -120.488      31.623
  C      240.265    -120.298      32.417
  N      240.799    -121.150      33.309
  C      240.119    -122.317      33.324
  C      239.003    -122.651      32.578
  C      238.524    -121.673      31.700
  N      237.401    -121.850      30.913
  N      238.559    -123.926      32.915
  C      239.412    -124.342      33.830
  N      240.365    -123.415      34.110
  O      236.799    -125.984      37.883
  O      238.342    -127.914      38.577
  H      242.702    -121.140      35.885
  H      236.143    -126.685      38.052
  H      240.754    -119.337      32.312
  H      239.362    -125.311      34.320
  H      242.383    -123.383      34.576
  H      240.592    -121.588      35.907
  H      239.576    -123.316      37.176
  H      242.395    -124.482      37.564
  H      241.126    -126.642      37.581
  H      240.710    -125.604      38.963
  H      237.081    -121.088      30.346
  H      236.842    -122.686      31.037
  P      239.655    -121.932      39.376
  C      239.836    -119.798      37.868
  O      239.792    -120.350      39.177
  O      239.966    -122.162      40.922
  O      238.312    -122.471      38.987
  H      239.134    -122.312      41.417
  H      239.929    -118.734      37.933
  H      238.936    -120.047      37.346
  H      240.677    -120.198      37.340

 6  7  8  9  10  11  12  13  14  15  25  28  32  33  34  35 0
 6-311+G(2d,p)
 ****
 36  37  40 0
 6-311+G(2d,p)
 ****
 1  2  3  4  5  16  17  18  19  20  21  22  23  24 0
 3-21G
 ****
 26  27  29  30  31  38  39 41  42  43  44  45  46  47  48 0
 3-21G
 ****


