%nproc=1
%NoSave
%Mem=1900MB
#P OB98/GEN NMR

erre ene a

0 1
  C      410.735     178.458     800.017
  O      410.172     177.274     799.456
  P      408.885     177.411     798.501
  C      409.836     178.506     796.371
  O      409.386     177.294     796.980
  C      410.042     178.307     794.863
  O      410.965     177.232     794.591
  C      408.759     177.938     794.131
  O      407.918     179.069     793.993
  C      409.320     177.382     792.829
  O      409.641     178.440     791.912
  C      410.613     176.681     793.304
  N      410.490     175.232     793.352
  C      410.788     174.544     792.167
  O      411.097     175.167     791.152
  N      410.719     173.170     792.175
  C      410.373     172.543     793.254
  N      410.322     171.185     793.201
  C      410.037     173.229     794.520
  C      410.103     174.552     794.491
  O      407.981     178.555     798.796
  O      408.129     176.004     798.728
  H      408.831     178.973     791.809
  H      407.172     176.146     798.597
  H      409.754     172.660     795.400
  H      409.868     175.141     795.380
  H      411.442     176.918     792.622
  H      408.600     176.732     792.322
  H      408.236     177.149     794.674
  H      410.459     179.240     794.457
  H      410.551     170.741     792.320
  H      410.780     178.817     796.836
  H      410.117     170.606     793.999
  H      409.104     179.296     796.571
  P      406.412     178.947     794.536
  C      405.831     177.625     796.692
  O      406.488     178.752     796.122
  O      405.954     177.501     794.001
  O      405.482     180.021     794.064
  H      405.006     177.521     793.793
  H      406.235     177.462     797.693
  H      405.991     176.723     796.097
  H      404.764     177.834     796.779
  H      411.578     178.200     800.623
  H      410.001     178.951     800.619
  H      411.049     179.111     799.230

 3  4  5  6  7  8  9  10  11  12  13  23  27  28  29  30  32 0
 6-311+G(2d,p)
 ****
 34  35 0
 6-311+G(2d,p)
 ****
 1  2  14  15  16  17  18  19  20  21  22  24  25  26 0
 3-21G
 ****
 31  33  36  37  38  39  40  41  42  43  44  45  46 0
 3-21G
 ****


