%nproc=1
%NoSave
%Mem=1900MB
#P OB98/GEN NMR

erre ene a

0 1
  C      301.217     154.056     -75.536
  O      300.032     154.695     -75.108
  H      301.648     153.518     -74.688
  H      301.942     154.796     -75.883
  H      301.007     153.339     -76.334
  P      299.111     155.420     -76.200
  C      297.209     153.714     -75.866
  O      298.117     154.308     -76.784
  C      295.789     154.194     -76.155
  O      295.385     153.774     -77.477
  C      294.741     153.624     -75.208
  O      294.787     154.250     -73.941
  C      293.473     153.870     -76.004
  O      293.013     155.217     -75.845
  C      293.947     153.624     -77.454
  N      293.547     152.306     -77.947
  C      292.744     152.294     -79.083
  O      292.384     153.313     -79.672
  N      292.314     151.062     -79.494
  C      292.487     149.892     -78.812
  O      291.879     148.860     -79.081
  C      293.392     149.955     -77.656
  C      293.862     151.144     -77.273
  O      299.836     156.228     -77.225
  O      298.136     156.339     -75.318
  H      298.449     157.263     -75.353
  H      293.752     155.789     -76.144
  H      291.696     151.049     -80.294
  H      293.613     149.034     -77.130
  H      294.505     151.221     -76.403
  H      293.538     154.388     -78.126
  H      292.666     153.204     -75.693
  H      294.890     152.542     -75.101
  H      295.783     155.292     -76.128
  H      297.494     154.011     -74.849
  H      297.277     152.625     -75.950
  P      294.696     153.376     -72.602
  C      297.091     153.929     -71.849
  O      296.176     152.899     -72.212
  O      293.673     152.289     -72.619
  O      294.360     154.448     -71.460
  H      293.598     154.127     -70.940
  H      298.040     153.496     -71.611
  H      296.715     154.456     -70.997
  H      297.205     154.609     -72.667

 6  7  8  9  10  11  12  13  14  15  16  27  31  32  33  34  35 0
 6-311+G(2d,p)
 ****
 36  37 0
 6-311+G(2d,p)
 ****
 1  2  3  4  5  17  18  19  20  21  22  23  24  25 0
 3-21G
 ****
 26  28  29  30  38  39  40  41  42  43  44  45 0
 3-21G
 ****


