%nproc=1
%NoSave
%Mem=1900MB
#P OB98/GEN NMR

erre ene a

0 1
  C      485.366    -572.117     -70.642
  O      484.216    -571.294     -70.637
  H      485.102    -573.091     -70.216
  H      486.149    -571.668     -70.030
  H      485.725    -572.262     -71.664
  P      484.337    -569.882     -71.378
  C      485.805    -567.730     -71.041
  O      485.388    -568.999     -70.542
  C      485.223    -566.611     -70.174
  O      485.669    -566.724     -68.805
  C      485.671    -565.216     -70.586
  O      485.085    -564.795     -71.798
  C      485.227    -564.420     -69.370
  O      483.819    -564.153     -69.409
  C      485.562    -565.404     -68.222
  N      486.775    -565.033     -67.502
  C      486.606    -564.107     -66.460
  O      485.489    -563.670     -66.191
  N      487.726    -563.685     -65.770
  C      488.888    -564.155     -66.076
  N      489.951    -563.692     -65.367
  C      489.104    -565.153     -67.148
  C      488.020    -565.533     -67.818
  O      482.936    -569.181     -71.035
  O      484.648    -569.944     -72.837
  H      483.568    -563.858     -68.510
  H      482.735    -569.163     -70.078
  H      490.101    -565.524     -67.360
  H      488.087    -566.261     -68.622
  H      484.737    -565.445     -67.491
  H      485.729    -563.455     -69.309
  H      486.762    -565.171     -70.636
  H      484.128    -566.708     -70.189
  H      489.766    -562.996     -64.651
  H      485.511    -567.603     -72.087
  H      490.908    -563.963     -65.539
  H      486.902    -567.705     -71.005
  P      485.874    -563.788     -72.768
  C      486.325    -561.254     -72.686
  O      486.111    -562.446     -71.926
  O      485.241    -563.569     -74.102
  O      487.345    -564.414     -72.839
  H      487.801    -564.480     -71.979
  H      486.470    -560.428     -72.021
  H      485.472    -561.068     -73.305
  H      487.192    -561.374     -73.301

 6  7  8  9  10  11  12  13  14  15  16  26  30  31  32  33  35 0
 6-311+G(2d,p)
 ****
 37  38 0
 6-311+G(2d,p)
 ****
 1  2  3  4  5  17  18  19  20  21  22  23  24  25 0
 3-21G
 ****
 27  28  29  34  36  39  40  41  42  43  44  45  46 0
 3-21G
 ****


