%nproc=1
%NoSave
%Mem=1900MB
#P OB98/GEN NMR

erre ene a

0 1
  C      732.080     306.662    -252.931
  O      733.223     306.990    -253.709
  P      733.517     308.507    -254.154
  C      732.681     308.333    -256.582
  O      732.420     308.825    -255.281
  C      731.494     308.618    -257.514
  O      730.325     307.959    -256.967
  C      731.093     310.094    -257.642
  O      731.844     310.817    -258.603
  C      729.650     309.942    -258.123
  O      729.640     309.637    -259.528
  C      729.156     308.750    -257.301
  N      724.743     310.458    -255.353
  C      725.107     310.121    -256.617
  N      726.315     309.701    -257.051
  C      727.175     309.580    -256.032
  C      726.955     309.875    -254.707
  C      725.653     310.342    -254.369
  N      725.289     310.658    -253.070
  N      728.085     309.661    -253.947
  C      728.982     309.209    -254.820
  N      728.476     309.143    -256.086
  O      734.928     308.771    -254.542
  O      733.036     309.387    -252.903
  H      728.763     309.286    -259.742
  H      733.412     310.279    -252.968
  H      724.339     310.226    -257.385
  H      729.986     308.936    -254.565
  H      728.486     308.101    -257.876
  H      729.071     310.877    -257.993
  H      731.099     310.599    -256.665
  H      731.703     308.180    -258.493
  H      732.835     307.245    -256.524
  H      724.302     310.856    -252.924
  H      725.903     310.415    -252.324
  H      733.596     308.784    -256.970
  P      731.973     312.411    -258.391
  C      730.011     313.065    -260.011
  O      730.510     313.004    -258.687
  O      733.074     313.053    -259.155
  O      732.112     312.547    -256.804
  H      731.323     312.291    -256.285
  H      728.957     313.356    -259.983
  H      730.113     312.104    -260.510
  H      730.565     313.849    -260.565
  H      732.067     305.609    -252.743
  H      731.194     306.940    -253.463
  H      732.118     307.190    -252.001

 3  4  5  6  7  8  9  10  11  12  22  25  29  30  31  32 0
 6-311+G(2d,p)
 ****
 33  36  37 0
 6-311+G(2d,p)
 ****
 1  2  13  14  15  16  17  18  19  20  21  23  24  26 0
 3-21G
 ****
 27  28  34  35  38  39  40  41  42  43  44  45  46  47  48 0
 3-21G
 ****


