%nproc=1
%NoSave
%Mem=1900MB
#P OB98/GEN NMR

erre ene a

0 1
  C      145.237      44.399    -147.792
  O      145.159      43.366    -146.832
  H      145.948      45.152    -147.441
  H      144.259      44.871    -147.918
  H      145.587      44.003    -148.750
  P      144.181      42.131    -147.161
  C      145.802      40.603    -148.512
  O      145.153      40.851    -147.269
  C      147.215      40.060    -148.278
  O      148.063      41.132    -147.793
  C      147.267      38.921    -147.254
  O      148.144      37.896    -147.727
  C      147.827      39.575    -146.000
  O      148.496      38.637    -145.157
  C      148.711      40.681    -146.588
  N      148.902      41.787    -145.646
  C      149.892      41.620    -144.672
  O      150.551      40.577    -144.629
  N      150.078      42.609    -143.742
  C      149.300      43.649    -143.742
  N      149.523      44.587    -142.778
  C      148.212      43.845    -144.720
  C      148.072      42.887    -145.636
  O      143.752      42.408    -148.675
  O      143.032      41.961    -146.225
  H      149.296      38.318    -145.635
  H      142.986      41.845    -148.943
  H      147.579      44.720    -144.668
  H      147.296      42.944    -146.393
  H      149.699      40.283    -146.867
  H      147.005      40.019    -145.426
  H      146.288      38.483    -147.056
  H      147.629      39.745    -149.244
  H      150.271      44.415    -142.120
  H      145.855      41.535    -149.078
  H      148.962      45.422    -142.665
  H      145.216      39.871    -149.081
  P      147.436      36.580    -148.316
  C      147.643      37.221    -150.824
  O      148.032      36.329    -149.788
  O      145.931      37.056    -148.589
  O      147.503      35.403    -147.402
  H      145.347      36.769    -147.862
  H      148.115      36.931    -151.740
  H      147.941      38.216    -150.568
  H      146.580      37.187    -150.944

 6  7  8  9  10  11  12  13  14  15  16  26  30  31  32  33  35 0
 6-311+G(2d,p)
 ****
 37  38 0
 6-311+G(2d,p)
 ****
 1  2  3  4  5  17  18  19  20  21  22  23  24  25 0
 3-21G
 ****
 27  28  29  34  36  39  40  41  42  43  44  45  46 0
 3-21G
 ****


