%nproc=1
%NoSave
%Mem=1900MB
#P OB98/GEN NMR

erre ene a

0 1
  C      848.451     485.833    1078.265
  O      849.765     485.439    1078.659
  P      850.967     485.750    1077.649
  C      850.874     483.508    1076.287
  O      851.620     484.363    1077.176
  C      851.834     482.609    1075.501
  O      852.582     483.360    1074.526
  C      852.875     481.952    1076.350
  O      852.322     480.833    1077.082
  C      853.930     481.552    1075.342
  O      853.696     480.220    1074.824
  C      853.778     482.606    1074.261
  N      854.940     483.512    1074.175
  C      856.014     483.034    1073.400
  O      855.975     481.906    1072.867
  N      857.134     483.822    1073.281
  C      857.193     484.969    1073.897
  N      858.312     485.712    1073.725
  C      856.072     485.488    1074.726
  C      854.983     484.719    1074.821
  O      852.098     486.389    1078.589
  O      850.589     486.696    1076.526
  H      852.746     480.215    1074.573
  H      852.614     487.050    1078.107
  H      856.170     486.445    1075.226
  H      854.139     485.017    1075.425
  H      853.629     482.150    1073.285
  H      854.922     481.502    1075.800
  H      853.283     482.658    1077.104
  H      851.214     481.832    1074.981
  H      859.064     485.322    1073.156
  H      850.275     484.113    1075.606
  H      858.471     486.617    1074.175
  H      850.177     482.938    1076.896
  P      852.137     480.969    1078.669
  C      854.645     480.983    1079.137
  O      853.427     480.264    1079.304
  O      850.976     479.872    1078.986
  O      851.757     482.342    1079.193
  H      850.722     479.942    1079.912
  H      855.415     480.503    1079.787
  H      854.554     482.012    1079.440
  H      854.986     480.898    1078.104
  H      847.753     485.565    1079.031
  H      848.188     485.338    1077.354
  H      848.426     486.892    1078.115

 3  4  5  6  7  8  9  10  11  12  13  21  23  27  28  29  30  32 0
 6-311+G(2d,p)
 ****
 34  35 0
 6-311+G(2d,p)
 ****
 1  2  14  15  16  17  18  19  20  22  24  25  26 0
 3-21G
 ****
 31  33  36  37  38  39  40  41  42  43  44  45  46 0
 3-21G
 ****


