%nproc=1
%NoSave
%Mem=1900MB
#P OB98/GEN NMR

erre ene a

0 1
  C     1256.735    -893.450     794.938
  O     1257.766    -893.540     795.925
  P     1257.453    -893.330     797.451
  C     1259.452    -894.990     797.865
  O     1258.696    -893.880     798.317
  C     1260.665    -895.140     798.781
  O     1260.234    -895.180     800.191
  C     1261.385    -896.460     798.535
  O     1262.493    -896.270     797.622
  C     1261.848    -896.890     799.932
  O     1263.047    -896.220     800.295
  C     1260.636    -896.420     800.785
  N     1259.468    -897.310     800.874
  C     1258.838    -897.480     802.120
  O     1259.149    -896.920     803.140
  N     1257.787    -898.370     802.092
  C     1257.285    -899.050     800.998
  O     1256.528    -900.000     801.051
  C     1257.834    -898.610     799.722
  C     1258.899    -897.800     799.696
  O     1256.296    -894.400     797.774
  O     1257.045    -891.930     797.852
  H     1262.872    -895.280     800.235
  H     1255.429    -893.960     797.755
  H     1257.392    -898.620     803.012
  H     1257.392    -899.010     798.803
  H     1259.330    -897.490     798.757
  H     1260.968    -896.220     801.830
  H     1262.089    -897.960     799.950
  H     1260.703    -897.220     798.126
  H     1261.337    -894.330     798.659
  H     1259.766    -894.850     796.851
  H     1258.837    -895.910     797.886
  P     1262.866    -897.380     796.589
  C     1264.522    -895.530     795.929
  O     1264.254    -896.940     795.971
  O     1261.807    -897.770     795.604
  O     1263.246    -898.640     797.530
  H     1262.512    -899.240     797.635
  H     1265.527    -895.350     795.678
  H     1264.291    -895.080     796.938
  H     1263.876    -895.070     795.177
  H     1257.153    -893.624     793.969
  H     1256.297    -892.474     794.968
  H     1255.984    -894.185     795.139

 3  4  5  6  7  8  9  10  11  12  13  23  28  29  30  31  32 0
 6-311+G(2d,p)
 ****
 33  34 0
 6-311+G(2d,p)
 ****
 1  2  14  15  16  17  18  19  20  21  22  24  25  26  27 0
 3-21G
 ****
 35  36  37  38  39  40  41  42  43  44  45 0
 3-21G
 ****


