%nproc=1
%NoSave
%Mem=1900MB
#P OB98/GEN NMR

erre ene a

0 1
  C      141.088    -119.729      -6.227
  O      142.171    -120.133      -5.414
  H      141.464    -119.253      -7.136
  H      140.508    -120.614      -6.505
  H      140.438    -119.036      -5.685
  P      143.053    -118.968      -4.752
  C      144.713    -119.140      -6.745
  O      143.875    -118.301      -5.961
  C      145.683    -118.297      -7.576
  O      144.935    -117.614      -8.617
  C      146.421    -117.231      -6.758
  O      147.767    -117.136      -7.231
  C      145.668    -115.953      -7.084
  O      146.473    -114.792      -6.908
  C      145.241    -116.210      -8.526
  N      143.441    -112.823     -11.900
  C      144.599    -113.513     -11.844
  N      144.999    -114.405     -10.912
  C      144.038    -114.589      -9.988
  C      142.809    -113.956      -9.912
  C      142.521    -113.023     -10.923
  N      141.359    -112.285     -10.966
  N      142.112    -114.383      -8.797
  C      142.909    -115.259      -8.215
  N      144.084    -115.412      -8.896
  O      144.168    -119.796      -3.949
  O      142.316    -118.019      -3.868
  H      147.366    -114.981      -7.265
  H      143.792    -120.115      -3.106
  H      145.301    -113.323     -12.653
  H      142.688    -115.799      -7.303
  H      146.038    -115.979      -9.247
  H      144.793    -115.864      -6.429
  H      146.426    -117.446      -5.689
  H      146.387    -118.969      -8.081
  H      144.088    -119.742      -7.412
  H      141.259    -111.599     -11.697
  H      140.689    -112.377     -10.215
  H      145.277    -119.806      -6.083
  P      148.916    -117.696      -6.258
  C      149.653    -115.334      -5.478
  O      149.173    -116.616      -5.097
  O      150.237    -117.609      -7.157
  O      148.671    -119.092      -5.783
  H      150.716    -118.457      -7.128
  H      149.776    -114.726      -4.606
  H      148.950    -114.872      -6.139
  H      150.594    -115.439      -5.975

 6  7  8  9  10  11  12  13  14  15  25  28  32  33  34  35 0
 6-311+G(2d,p)
 ****
 36  39  40 0
 6-311+G(2d,p)
 ****
 1  2  3  4  5  16  17  18  19  20  21  22  23  24 0
 3-21G
 ****
 26  27  29  30  31  37  38  41  42  43  44  45  46  47 0
 3-21G
 ****
 48 0
 3-21G
 ****


