%nproc=1
%NoSave
%Mem=1900MB
#P OB98/GEN NMR

erre ene a

0 1
  C      -41.224     -12.059      44.789
  O      -40.188     -12.931      44.379
  H      -42.028     -12.099      44.048
  H      -40.858     -11.031      44.852
  H      -41.626     -12.371      45.757
  P      -38.886     -13.047      45.304
  C      -37.262     -11.301      46.292
  O      -38.180     -11.608      45.252
  C      -35.961     -10.770      45.701
  O      -35.308     -11.791      44.923
  C      -36.147      -9.569      44.773
  O      -36.282      -8.376      45.528
  C      -34.853      -9.633      43.980
  O      -33.768      -9.121      44.777
  C      -34.692     -11.149      43.772
  N      -34.054     -12.137      38.842
  C      -33.195     -11.542      39.746
  N      -32.014     -11.111      39.252
  N      -33.477     -11.368      41.011
  C      -34.720     -11.784      41.343
  C      -35.666     -12.372      40.534
  C      -35.321     -12.611      39.149
  O      -36.047     -13.151      38.319
  N      -36.836     -12.599      41.213
  C      -36.585     -12.184      42.438
  N      -35.318     -11.666      42.566
  O      -37.958     -14.186      45.005
  O      -39.469     -13.120      46.790
  H      -34.022      -8.219      45.047
  H      -39.596     -14.043      47.075
  H      -33.786     -12.226      37.876
  H      -37.280     -12.237      43.267
  H      -33.641     -11.456      43.748
  H      -34.884      -9.050      43.060
  H      -31.872     -10.963      38.261
  H      -36.985      -9.715      44.084
  H      -31.393     -10.628      39.887
  H      -35.291     -10.521      46.533
  H      -37.079     -12.222      46.855
  H      -37.689     -10.555      46.969
  P      -37.238      -7.185      45.030
  C      -37.067      -5.405      43.164
  O      -36.412      -6.451      43.868
  O      -37.729      -6.283      46.110
  O      -38.401      -7.916      44.219
  H      -39.165      -8.189      44.784
  H      -36.407      -5.006      42.423
  H      -37.342      -4.631      43.850
  H      -37.945      -5.790      42.689

 6  7  8  9  10  11  12  13  14  15  26  29  33  34 0
 6-311+G(2d,p)
 ****
 36  38  39  40  41 0
 6-311+G(2d,p)
 ****
 1  2  3  4  5  16  17  18  19  20  21  22  23  24  25 0
 3-21G
 ****
 27  28  30  31  32  35  37  42  43  44  45  46  47 0
 3-21G
 ****
 48  49 0
 3-21G
 ****


