%nproc=1
%NoSave
%Mem=1900MB
#P OB98/GEN NMR

erre ene a

0 1
  C     -236.876      -8.335     -99.643
  O     -236.951      -7.000    -100.098
  H     -236.483      -8.334     -98.622
  H     -236.203      -8.919    -100.275
  H     -237.870      -8.792     -99.632
  P     -237.436      -6.726    -101.600
  C     -236.352      -6.738    -103.942
  O     -236.158      -6.942    -102.546
  C     -235.157      -5.983    -104.536
  O     -235.199      -4.625    -104.032
  C     -233.810      -6.604    -104.136
  O     -232.970      -6.888    -105.254
  C     -233.281      -5.642    -103.080
  O     -231.874      -5.621    -102.953
  C     -233.905      -4.303    -103.486
  N     -234.034      -3.351    -102.386
  C     -233.034      -2.391    -102.254
  O     -232.068      -2.267    -103.004
  N     -233.180      -1.527    -101.199
  C     -234.191      -1.536    -100.285
  O     -234.271      -0.733     -99.364
  C     -235.204      -2.588    -100.464
  C     -235.080      -3.434    -101.490
  O     -238.165      -5.443    -101.820
  O     -238.356      -7.990    -101.947
  H     -231.565      -6.548    -102.903
  H     -239.296      -7.735    -101.888
  H     -232.467      -0.821    -101.099
  H     -236.016      -2.630     -99.752
  H     -235.812      -4.220    -101.653
  H     -233.316      -3.827    -104.270
  H     -233.686      -5.946    -102.107
  H     -233.956      -7.589    -103.677
  H     -235.276      -5.935    -105.625
  H     -237.270      -6.160    -104.075
  H     -236.464      -7.707    -104.443
  P     -232.845      -8.313    -105.959
  C     -231.479     -10.509    -105.519
  O     -231.693      -9.137    -105.215
  O     -232.809      -8.295    -107.449
  O     -234.201      -9.068    -105.513
  H     -234.447      -9.657    -106.254
  H     -230.672     -10.884    -104.925
  H     -231.236     -10.611    -106.556
  H     -232.368     -11.065    -105.305

 6  7  8  9  10  11  12  13  14  15  16  26  31  32  33  34  35 0
 6-311+G(2d,p)
 ****
 36  37 0
 6-311+G(2d,p)
 ****
 1  2  3  4  5  17  18  19  20  21  22  23  24  25 0
 3-21G
 ****
 27  28  29  30  38  39  40  41  42  43  44  45 0
 3-21G
 ****


