%nproc=1
%NoSave
%Mem=1900MB
#P OB98/GEN NMR

erre ene a

0 1
  C      468.092    1309.605    -680.197
  O      469.218    1309.714    -679.332
  P      470.086    1308.486    -678.803
  C      472.114    1308.908    -680.399
  O      471.081    1308.042    -679.978
  C      472.996    1308.301    -681.500
  O      472.179    1307.834    -682.605
  C      473.949    1309.360    -682.095
  O      475.160    1309.652    -681.436
  C      474.107    1308.974    -683.556
  O      475.250    1308.155    -683.782
  C      472.821    1308.169    -683.843
  N      471.944    1310.065    -688.519
  C      473.092    1309.471    -688.017
  N      474.158    1309.405    -688.845
  N      473.177    1308.985    -686.802
  C      472.083    1309.202    -686.045
  C      470.884    1309.791    -686.427
  C      470.768    1310.268    -687.790
  O      469.782    1310.785    -688.287
  N      470.010    1309.844    -685.393
  C      470.644    1309.310    -684.373
  N      471.921    1308.889    -684.734
  O      469.317    1307.406    -678.110
  O      471.062    1309.169    -677.711
  H      476.038    1308.654    -683.532
  H      471.210    1308.493    -677.019
  H      471.922    1310.387    -689.467
  H      470.256    1309.177    -683.374
  H      473.055    1307.216    -684.330
  H      474.227    1309.863    -684.174
  H      474.176    1309.848    -689.742
  H      473.382    1310.306    -682.097
  H      475.045    1309.163    -688.418
  H      473.520    1307.410    -681.138
  H      472.721    1309.149    -679.517
  H      471.690    1309.859    -680.752
  P      475.374    1310.726    -680.257
  C      476.447    1308.947    -678.744
  O      475.449    1309.936    -678.868
  O      473.969    1311.484    -680.159
  O      476.500    1311.690    -680.474
  H      474.069    1312.318    -679.660
  H      476.208    1308.278    -677.906
  H      477.409    1309.448    -678.537
  H      476.540    1308.348    -679.677
  H      467.698    1310.580    -680.394
  H      467.340    1309.004    -679.730
  H      468.392    1309.149    -681.117

 3  4  5  6  7  8  9  10  11  12  23  26  30  31 0
 6-311+G(2d,p)
 ****
 33  35  36  37  38 0
 6-311+G(2d,p)
 ****
 1  2  13  14  15  16  17  18  19  20  21  22  24  25 0
 3-21G
 ****
 27  28  29  32  34  39  40  41  42  43  44  45  46  47  48  49 0
 3-21G
 ****


