%nproc=1
%NoSave
%Mem=1900MB
#P OB98/GEN NMR

erre ene a

0 1
  C      613.973    -993.029     899.523
  O      613.471    -993.441     898.269
  H      614.764    -992.290     899.357
  H      614.416    -993.881     900.050
  H      613.195    -992.577     900.119
  P      612.330    -994.554     898.227
  C      610.937    -993.924     896.145
  O      611.055    -993.829     897.577
  C      611.022    -992.570     895.485
  O      612.289    -991.954     895.800
  C      610.904    -992.630     893.941
  O      609.981    -991.618     893.506
  C      612.312    -992.269     893.479
  O      612.328    -991.733     892.170
  C      612.768    -991.330     894.602
  N      614.208    -991.143     894.589
  C      614.647    -989.827     894.414
  O      613.831    -988.885     894.283
  N      615.996    -989.577     894.360
  C      616.812    -990.582     894.412
  N      618.154    -990.263     894.317
  C      616.402    -991.949     894.570
  C      615.098    -992.185     894.650
  O      612.065    -995.250     899.522
  O      612.781    -995.569     897.062
  H      612.082    -992.437     891.514
  H      612.338    -996.438     897.202
  H      617.133    -992.779     894.595
  H      614.684    -993.209     894.788
  H      612.269    -990.335     894.515
  H      612.927    -993.178     893.473
  H      610.585    -993.597     893.563
  H      610.235    -991.928     895.903
  H      618.382    -989.277     894.198
  H      609.973    -994.441     895.919
  H      618.887    -990.947     894.311
  H      611.750    -994.567     895.801
  P      608.437    -991.873     893.901
  C      607.423    -989.657     894.806
  O      608.065    -990.900     895.104
  O      608.454    -993.339     894.550
  O      607.521    -991.792     892.715
  H      608.003    -993.965     893.936
  H      607.241    -989.123     895.715
  H      606.493    -989.845     894.311
  H      608.054    -989.073     894.169

 6  7  8  9  10  11  12  13  14  15  16  26  30  31  32  33  35 0
 6-311+G(2d,p)
 ****
 37  38 0
 6-311+G(2d,p)
 ****
 1  2  3  4  5  17  18  19  20  21  22  23  24  25 0
 3-21G
 ****
 27  28  29  34  36  39  40  41  42  43  44  45  46 0
 3-21G
 ****


