%nproc=1
%NoSave
%Mem=1900MB
#P OB98/GEN NMR

erre ene a

0 1
  C      648.397    -896.680     315.019
  O      647.049    -896.260     314.933
  H      648.738    -896.530     316.043
  H      649.018    -896.060     314.353
  H      648.498    -897.740     314.750
  P      646.248    -896.520     313.564
  C      643.880    -897.420     313.035
  O      644.696    -896.690     313.955
  C      642.700    -898.050     313.778
  O      643.160    -898.910     314.838
  C      641.798    -897.020     314.462
  O      640.959    -896.370     313.520
  C      641.057    -897.900     315.454
  O      639.979    -898.600     314.823
  C      642.179    -898.870     315.900
  N      642.791    -898.510     317.181
  C      642.309    -899.160     318.307
  O      641.403    -900.000     318.262
  N      642.895    -898.810     319.489
  C      643.812    -897.810     319.660
  O      644.245    -897.480     320.773
  C      644.267    -897.140     318.446
  C      643.743    -897.500     317.294
  O      646.801    -897.570     312.671
  O      646.267    -895.080     312.847
  H      639.244    -897.960     314.747
  H      646.920    -895.090     312.122
  H      642.560    -899.270     320.329
  H      644.993    -896.340     318.544
  H      644.065    -897.010     316.364
  H      641.782    -899.890     315.994
  H      640.639    -897.330     316.279
  H      642.397    -896.290     315.010
  H      642.122    -898.660     313.075
  H      644.496    -898.230     312.599
  H      643.536    -896.750     312.237
  P      639.867    -895.320     314.019
  C      638.613    -893.280     313.094
  O      639.530    -894.320     312.808
  O      640.155    -894.650     315.330
  O      638.520    -896.210     314.136
  H      638.196    -896.190     315.047
  H      638.467    -892.682     312.219
  H      639.001    -892.669     313.882
  H      637.678    -893.702     313.397

 6  7  8  9  10  11  12  13  14  15  16  26  31  32  33  34  35 0
 6-311+G(2d,p)
 ****
 36  37 0
 6-311+G(2d,p)
 ****
 1  2  3  4  5  17  18  19  20  21  22  23  24  25 0
 3-21G
 ****
 27  28  29  30  38  39  40  41  42  43  44  45 0
 3-21G
 ****


