%nproc=1
%NoSave
%Mem=1900MB
#P OB98/GEN NMR

erre ene a

0 1
  C      546.938     605.233     -53.602
  O      547.099     605.017     -54.983
  H      547.879     604.996     -53.096
  H      546.156     604.577     -53.208
  H      546.678     606.276     -53.399
  P      545.832     605.331     -55.928
  C      547.434     606.447     -57.652
  O      546.287     606.589     -56.829
  C      547.672     607.739     -58.439
  O      546.634     607.906     -59.415
  C      547.700     609.000     -57.546
  O      548.779     609.851     -57.963
  C      546.370     609.659     -57.820
  O      546.402     611.061     -57.588
  C      546.075     609.228     -59.267
  N      544.650     609.223     -59.562
  C      543.996     610.490     -59.493
  O      544.629     611.509     -59.194
  N      542.637     610.534     -59.710
  C      541.990     609.444     -59.939
  N      540.645     609.566     -60.125
  C      542.611     608.108     -59.967
  C      543.935     608.072     -59.776
  O      544.770     605.950     -54.915
  O      545.321     604.165     -56.713
  H      545.533     611.426     -57.832
  H      543.873     605.995     -55.313
  H      542.014     607.211     -60.131
  H      544.487     607.145     -59.772
  H      546.583     609.898     -59.970
  H      545.606     609.220     -57.143
  H      547.821     608.771     -56.498
  H      548.625     607.634     -59.005
  H      540.246     610.505     -60.093
  H      547.272     605.621     -58.358
  H      540.018     608.774     -60.275
  H      548.313     606.222     -57.029
  P      549.818     610.273     -56.810
  C      551.549     608.503     -57.607
  O      550.773     608.995     -56.527
  O      548.898     610.353     -55.502
  O      550.529     611.542     -57.089
  H      548.670     611.274     -55.311
  H      552.127     607.664     -57.278
  H      552.205     609.273     -57.955
  H      550.901     608.200     -58.403

 6  7  8  9  10  11  12  13  14  15  16  26  30  31  32  33  35 0
 6-311+G(2d,p)
 ****
 37  38 0
 6-311+G(2d,p)
 ****
 1  2  3  4  5  17  18  19  20  21  22  23  24  25 0
 3-21G
 ****
 27  28  29  34  36  39  40  41  42  43  44  45  46 0
 3-21G
 ****


