%nproc=1
%NoSave
%Mem=1900MB
#P OB98/GEN NMR

erre ene a

0 1
  C      -16.126       6.625    -163.305
  O      -17.440       6.161    -163.041
  P      -17.711       5.409    -161.650
  C      -17.701       3.096    -162.832
  O      -17.171       3.902    -161.787
  C      -17.144       1.672    -162.755
  O      -15.718       1.695    -163.035
  C      -17.326       1.011    -161.385
  O      -17.535      -0.398    -161.562
  C      -15.976       1.191    -160.721
  O      -15.760       0.219    -159.699
  C      -15.046       1.058    -161.928
  N      -10.555       0.481    -159.673
  C      -11.541      -0.455    -159.924
  N      -11.329      -1.694    -159.426
  N      -12.628      -0.204    -160.604
  C      -12.702       1.081    -161.033
  C      -11.789       2.096    -160.862
  C      -10.596       1.805    -160.095
  O       -9.700       2.598    -159.813
  N      -12.199       3.253    -161.472
  C      -13.383       2.955    -161.977
  N      -13.748       1.662    -161.706
  O      -19.305       5.241    -161.641
  O      -17.244       6.149    -160.441
  H      -14.914       0.444    -159.266
  H      -19.700       5.879    -161.014
  H       -9.740       0.241    -159.133
  H      -14.021       3.642    -162.520
  H      -14.887       0.007    -162.199
  H      -15.906       2.185    -160.268
  H      -10.547      -1.935    -158.837
  H      -18.146       1.427    -160.787
  H      -12.056      -2.388    -159.558
  H      -17.616       1.071    -163.542
  H      -17.431       3.535    -163.792
  H      -18.794       3.076    -162.760
  P      -18.731      -1.045    -160.704
  C      -17.202      -2.099    -158.878
  O      -18.188      -1.140    -159.198
  O      -18.753      -2.568    -161.197
  O      -20.048      -0.364    -160.881
  H      -19.645      -2.948    -161.072
  H      -16.292      -1.581    -158.555
  H      -16.956      -2.743    -159.729
  H      -17.565      -2.724    -158.059
  H      -16.102       7.101    -164.263
  H      -15.448       5.797    -163.301
  H      -15.837       7.326    -162.550

 3  4  5  6  7  8  9  10  11  12  23  26  30  31 0
 6-311+G(2d,p)
 ****
 33  35  36  37  38 0
 6-311+G(2d,p)
 ****
 1  2  13  14  15  16  17  18  19  20  21  22  24  25 0
 3-21G
 ****
 27  28  29  32  34  39  40  41  42  43  44  45  46  47  48  49 0
 3-21G
 ****


