%nproc=1
%NoSave
%Mem=1900MB
#P OB98/GEN NMR

erre ene a

0 1
  C      -68.996      64.156     -55.426
  O      -67.861      63.516     -55.973
  H      -69.314      63.607     -54.536
  H      -69.821      64.170     -56.143
  H      -68.744      65.180     -55.132
  P      -67.359      63.979     -57.426
  C      -64.958      64.387     -56.567
  O      -66.120      64.966     -57.157
  C      -64.187      65.422     -55.745
  O      -64.936      65.777     -54.565
  C      -62.847      64.922     -55.231
  O      -61.877      64.730     -56.238
  C      -62.559      65.877     -54.082
  O      -61.921      67.082     -54.493
  C      -63.984      66.191     -53.564
  N      -64.246      65.569     -52.273
  C      -63.901      66.321     -51.156
  O      -63.384      67.437     -51.221
  N      -64.130      65.731     -49.944
  C      -64.612      64.470     -49.749
  O      -64.756      63.981     -48.635
  C      -64.935      63.712     -50.968
  C      -64.740      64.286     -52.157
  O      -68.410      64.558     -58.324
  O      -66.657      62.671     -58.020
  H      -61.026      66.840     -54.805
  H      -66.543      62.741     -58.998
  H      -63.896      66.266     -49.123
  H      -65.317      62.706     -50.851
  H      -64.970      63.746     -53.072
  H      -64.113      67.275     -53.445
  H      -61.917      65.415     -53.329
  H      -63.005      63.936     -54.776
  H      -64.065      66.325     -56.354
  H      -64.319      64.023     -57.378
  H      -65.249      63.539     -55.938
  P      -61.213      63.312     -56.558
  C      -61.577      63.317     -59.130
  O      -61.907      62.720     -57.881
  O      -60.987      62.398     -55.398
  O      -59.763      63.760     -57.109
  H      -59.122      63.079     -56.830
  H      -62.111      62.822     -59.914
  H      -60.525      63.226     -59.302
  H      -61.847      64.352     -59.113

 6  7  8  9  10  11  12  13  14  15  16  26  31  32  33  34  35 0
 6-311+G(2d,p)
 ****
 36  37 0
 6-311+G(2d,p)
 ****
 1  2  3  4  5  17  18  19  20  21  22  23  24  25 0
 3-21G
 ****
 27  28  29  30  38  39  40  41  42  43  44  45 0
 3-21G
 ****


