%nproc=1
%NoSave
%Mem=1900MB
#P OB98/GEN NMR

erre ene a

0 1
  C      272.918    -382.898     255.239
  O      274.185    -383.469     255.520
  P      274.731    -383.370     257.025
  C      275.021    -381.331     258.665
  O      274.869    -381.804     257.337
  C      276.065    -380.208     258.713
  O      275.596    -379.072     257.952
  C      276.357    -379.670     260.107
  O      277.198    -380.548     260.840
  C      276.973    -378.319     259.783
  O      278.357    -378.477     259.416
  C      276.149    -377.886     258.553
  N      275.094    -376.920     258.880
  C      275.348    -375.596     258.534
  O      276.385    -375.225     257.987
  N      274.364    -374.697     258.863
  C      273.215    -374.978     259.546
  O      272.390    -374.126     259.850
  C      273.019    -376.389     259.909
  C      273.954    -377.280     259.562
  O      276.235    -383.881     256.827
  O      273.918    -384.154     257.999
  H      276.560    -383.707     255.925
  H      278.797    -378.901     260.175
  H      274.518    -373.735     258.607
  H      272.120    -376.647     260.455
  H      273.831    -378.324     259.835
  H      276.803    -377.432     257.797
  H      276.935    -377.621     260.623
  H      275.413    -379.522     260.651
  H      276.983    -380.577     258.239
  H      275.344    -382.157     259.301
  H      274.050    -380.966     259.025
  P      277.027    -380.527     262.445
  C      277.186    -378.549     264.143
  O      277.636    -379.131     262.939
  O      278.117    -381.610     262.886
  O      275.637    -380.822     262.905
  H      278.950    -381.534     262.389
  H      277.930    -377.824     264.487
  H      277.032    -379.296     264.920
  H      276.245    -378.017     263.959
  H      272.685    -383.038     254.204
  H      272.941    -381.851     255.461
  H      272.171    -383.373     255.840

 3  4  5  6  7  8  9  10  11  12  13  24  28  29  30  31  32 0
 6-311+G(2d,p)
 ****
 33  34 0
 6-311+G(2d,p)
 ****
 1  2  14  15  16  17  18  19  20  21  22  23  25  26  27 0
 3-21G
 ****
 35  36  37  38  39  40  41  42  43  44  45 0
 3-21G
 ****


