%nproc=1
%NoSave
%Mem=1900MB
#P OB98/GEN NMR

erre ene a

0 1
  C      -53.687     867.984    -358.854
  O      -53.761     866.615    -359.194
  H      -53.794     868.066    -357.762
  H      -54.504     868.538    -359.319
  H      -52.726     868.406    -359.143
  P      -53.534     866.200    -360.738
  C      -52.353     863.918    -360.567
  O      -52.195     865.312    -360.779
  C      -51.858     863.536    -359.170
  O      -52.616     864.283    -358.177
  C      -52.037     862.043    -358.856
  O      -50.913     861.598    -358.084
  C      -53.289     862.007    -357.980
  O      -53.307     860.884    -357.104
  C      -53.203     863.347    -357.248
  N      -56.110     864.127    -353.194
  C      -54.790     863.719    -353.292
  N      -54.155     863.452    -352.120
  N      -54.147     863.575    -354.423
  C      -54.895     863.889    -355.508
  C      -56.205     864.300    -355.550
  C      -56.912     864.433    -354.287
  O      -58.077     864.779    -354.147
  N      -56.627     864.480    -356.848
  C      -55.572     864.190    -357.586
  N      -54.504     863.819    -356.815
  O      -53.561     867.330    -361.710
  O      -54.688     865.141    -361.022
  H      -53.452     860.087    -357.666
  H      -55.438     865.546    -361.499
  H      -56.559     864.201    -352.311
  H      -55.546     864.215    -358.664
  H      -52.561     863.303    -356.355
  H      -54.176     861.964    -358.622
  H      -54.581     863.560    -351.216
  H      -52.129     861.424    -359.733
  H      -53.182     863.173    -352.161
  H      -50.812     863.833    -359.077
  H      -51.776     863.384    -361.328
  H      -53.404     863.650    -360.672
  P      -49.667     860.927    -358.852
  C      -47.762     862.541    -358.203
  O      -48.627     862.080    -359.240
  O      -50.027     859.989    -359.959
  O      -48.898     860.154    -357.659
  H      -48.470     859.376    -358.037
  H      -47.120     863.306    -358.588
  H      -47.170     861.726    -357.844
  H      -48.348     862.937    -357.400

 6  7  8  9  10  11  12  13  14  15  26  29  33  34 0
 6-311+G(2d,p)
 ****
 36  38  39  40  41 0
 6-311+G(2d,p)
 ****
 1  2  3  4  5  16  17  18  19  20  21  22  23  24  25 0
 3-21G
 ****
 27  28  30  31  32  35  37  42  43  44  45  46  47 0
 3-21G
 ****
 48  49 0
 3-21G
 ****


