%nproc=1
%NoSave
%Mem=1900MB
#P OB98/GEN NMR

erre ene a

0 1
  C       74.400    -163.304    -123.708
  O       75.779    -163.606    -123.781
  H       73.890    -163.773    -124.553
  H       74.249    -162.223    -123.762
  H       73.973    -163.693    -122.779
  P       76.700    -163.109    -122.566
  C       77.788    -160.836    -121.904
  O       77.069    -161.577    -122.878
  C       78.428    -159.606    -122.552
  O       79.443    -160.053    -123.492
  C       77.427    -158.745    -123.334
  O       77.779    -157.367    -123.180
  C       77.647    -159.176    -124.775
  O       77.250    -158.202    -125.732
  C       79.155    -159.445    -124.769
  N       79.574    -160.319    -125.864
  C       80.560    -159.843    -126.724
  O       81.156    -158.775    -126.585
  N       80.857    -160.654    -127.791
  C       80.265    -161.849    -128.085
  O       80.559    -162.515    -129.069
  C       79.225    -162.295    -127.145
  C       78.931    -161.521    -126.096
  O       78.083    -163.873    -122.814
  O       76.150    -163.344    -121.200
  H       78.087    -164.734    -122.350
  H       77.415    -158.572    -126.624
  H       81.572    -160.327    -128.422
  H       78.727    -163.231    -127.351
  H       78.160    -161.813    -125.393
  H       79.713    -158.501    -124.815
  H       77.091    -160.098    -124.980
  H       76.393    -158.900    -123.020
  H       78.935    -159.019    -121.779
  H       78.573    -161.469    -121.480
  H       77.103    -160.532    -121.104
  P       76.638    -156.368    -122.649
  C       74.670    -155.109    -123.827
  O       75.900    -155.804    -123.960
  O       77.511    -155.139    -122.123
  O       75.745    -156.995    -121.629
  H       78.295    -154.957    -122.672
  H       74.324    -154.808    -124.794
  H       74.814    -154.244    -123.214
  H       73.945    -155.751    -123.373

 6  7  8  9  10  11  12  13  14  15  16  27  31  32  33  34  35 0
 6-311+G(2d,p)
 ****
 36  37 0
 6-311+G(2d,p)
 ****
 1  2  3  4  5  17  18  19  20  21  22  23  24  25 0
 3-21G
 ****
 26  28  29  30  38  39  40  41  42  43  44  45 0
 3-21G
 ****


