%nproc=1
%NoSave
%Mem=1900MB
#P OB98/GEN NMR

erre ene a

0 1
  C      105.268     -60.611     -28.265
  O      105.194     -61.368     -27.073
  H      105.376     -61.298     -29.109
  H      106.129     -59.938     -28.248
  H      104.349     -60.033     -28.400
  P      105.311     -60.589     -25.673
  C      107.784     -61.322     -25.568
  O      106.871     -60.227     -25.519
  C      109.205     -60.873     -25.231
  O      109.660     -59.871     -26.164
  C      109.345     -60.224     -23.863
  O      109.130     -61.092     -22.774
  C      110.680     -59.507     -23.992
  O      111.790     -60.376     -23.758
  C      110.651     -59.074     -25.478
  N      110.395     -57.645     -25.633
  C      111.452     -56.800     -25.319
  O      112.544     -57.196     -24.909
  N      111.206     -55.460     -25.458
  C      110.020     -54.898     -25.827
  O      109.856     -53.686     -25.914
  C      108.925     -55.841     -26.109
  C      109.160     -57.153     -26.003
  O      104.732     -61.298     -24.486
  O      104.637     -59.168     -25.968
  H      112.596     -59.833     -23.837
  H      104.427     -58.691     -25.127
  H      111.965     -54.829     -25.250
  H      107.965     -55.432     -26.392
  H      108.367     -57.870     -26.209
  H      111.614     -59.297     -25.958
  H      110.768     -58.673     -23.292
  H      108.580     -59.440     -23.774
  H      109.867     -61.741     -25.328
  H      107.765     -61.726     -26.586
  H      107.457     -62.101     -24.871
  P      108.538     -60.619     -21.369
  C      110.942     -60.559     -20.338
  O      109.703     -59.889     -20.544
  O      107.672     -61.600     -20.645
  O      107.606     -59.376     -21.807
  H      106.836     -59.366     -21.202
  H      111.598     -59.930     -19.773
  H      111.389     -60.781     -21.284
  H      110.771     -61.469     -19.802

 6  7  8  9  10  11  12  13  14  15  16  26  31  32  33  34  35 0
 6-311+G(2d,p)
 ****
 36  37 0
 6-311+G(2d,p)
 ****
 1  2  3  4  5  17  18  19  20  21  22  23  24  25 0
 3-21G
 ****
 27  28  29  30  38  39  40  41  42  43  44  45 0
 3-21G
 ****


