%nproc=1
%NoSave
%Mem=1900MB
#P OB98/GEN NMR

erre ene a

0 1
  C     -102.907    -743.713     949.750
  O     -103.466    -744.506     950.774
  H     -101.849    -743.542     949.975
  H     -103.420    -742.746     949.712
  H     -102.991    -744.210     948.775
  P     -104.874    -745.215     950.473
  C     -104.183    -747.697     950.123
  O     -104.560    -746.467     949.515
  C     -105.243    -748.775     949.871
  O     -105.225    -749.097     948.445
  C     -105.003    -750.083     950.638
  O     -106.276    -750.621     951.037
  C     -104.406    -750.997     949.597
  O     -104.583    -752.373     949.906
  C     -105.150    -750.540     948.342
  N     -103.617    -754.617     945.867
  C     -104.445    -754.505     946.972
  N     -104.863    -755.632     947.551
  N     -104.796    -753.344     947.480
  C     -104.314    -752.283     946.798
  C     -103.503    -752.268     945.686
  C     -103.083    -753.546     945.149
  O     -102.357    -753.725     944.181
  N     -103.180    -750.980     945.324
  C     -103.785    -750.217     946.220
  N     -104.493    -750.967     947.133
  O     -105.585    -744.161     949.492
  O     -105.708    -745.520     951.669
  H     -104.132    -752.561     950.755
  H     -106.170    -743.570     950.019
  H     -103.358    -755.528     945.521
  H     -103.726    -749.148     946.263
  H     -106.179    -750.922     948.305
  H     -103.331    -750.800     949.501
  H     -104.655    -756.565     947.209
  H     -104.366    -749.966     951.537
  H     -105.495    -755.564     948.338
  H     -106.232    -748.358     950.085
  H     -104.097    -747.544     951.209
  H     -103.209    -748.006     949.733
  P     -106.571    -750.831     952.605
  C     -108.094    -748.739     952.985
  O     -106.855    -749.383     953.264
  O     -105.142    -751.226     953.184
  O     -107.596    -751.876     952.883
  H     -105.242    -751.854     953.915
  H     -108.128    -747.797     953.491
  H     -108.900    -749.355     953.324
  H     -108.184    -748.581     951.931

 6  7  8  9  10  11  12  13  14  15  26  29  33  34 0
 6-311+G(2d,p)
 ****
 36  38  39  40  41 0
 6-311+G(2d,p)
 ****
 1  2  3  4  5  16  17  18  19  20  21  22  23  24  25 0
 3-21G
 ****
 27  28  30  31  32  35  37  42  43  44  45  46  47 0
 3-21G
 ****
 48  49 0
 3-21G
 ****


