%nproc=1
%NoSave
%Mem=1900MB
#P OB98/GEN NMR

erre ene a

0 1
  C     1552.454    -129.712    -382.417
  O     1552.048    -130.701    -381.486
  H     1552.915    -130.181    -383.291
  H     1551.567    -129.147    -382.738
  H     1553.159    -129.023    -381.940
  P     1553.183    -131.704    -380.969
  C     1551.481    -133.453    -380.090
  O     1552.537    -133.177    -381.003
  C     1550.840    -134.796    -380.425
  O     1550.110    -134.705    -381.673
  C     1551.823    -135.947    -380.611
  O     1552.276    -136.471    -379.371
  C     1550.946    -136.946    -381.361
  O     1550.101    -137.656    -380.417
  C     1550.087    -136.037    -382.248
  N     1548.972    -134.511    -387.037
  C     1548.282    -134.431    -385.878
  N     1548.627    -134.863    -384.652
  C     1549.849    -135.431    -384.670
  C     1550.682    -135.583    -385.770
  C     1550.196    -135.101    -387.007
  N     1550.909    -135.205    -388.172
  N     1551.869    -136.184    -385.423
  C     1551.753    -136.405    -384.126
  N     1550.553    -135.962    -383.624
  O     1553.284    -131.379    -379.405
  O     1554.512    -131.575    -381.648
  H     1549.568    -138.280    -380.931
  H     1554.218    -131.475    -379.125
  H     1547.303    -133.937    -385.946
  H     1552.521    -136.857    -383.505
  H     1549.047    -136.364    -382.262
  H     1551.524    -137.700    -381.904
  H     1552.663    -135.651    -381.255
  H     1550.118    -135.027    -379.630
  H     1550.719    -132.667    -380.153
  H     1550.598    -134.671    -388.986
  H     1551.829    -135.634    -388.155
  H     1551.888    -133.472    -379.076
  P     1553.873    -136.563    -379.149
  C     1553.309    -138.114    -377.139
  O     1554.096    -137.914    -378.295
  O     1554.153    -135.403    -378.072
  O     1554.692    -136.393    -380.376
  H     1555.072    -135.102    -378.146
  H     1553.572    -139.047    -376.686
  H     1552.274    -138.128    -377.410
  H     1553.485    -137.318    -376.446

 6  7  8  9  10  11  12  13  14  15  25  28  32  33  34  35 0
 6-311+G(2d,p)
 ****
 36  39  40 0
 6-311+G(2d,p)
 ****
 1  2  3  4  5  16  17  18  19  20  21  22  23  24 0
 3-21G
 ****
 26  27  29  30  31  37  38  41  42  43  44  45  46  47  48 0
 3-21G
 ****


