%nproc=1
%NoSave
%Mem=1900MB
#P OB98/GEN NMR

erre ene a

0 1
  C       13.677       8.044     287.663
  O       14.054       9.406     287.428
  P       13.093      10.630     287.822
  C       11.505      11.137     285.868
  O       12.721      11.494     286.517
  C       11.283      11.887     284.545
  O       11.664      13.284     284.669
  C       12.057      11.326     283.345
  O       11.247      11.582     282.197
  C       13.299      12.202     283.329
  O       13.986      12.190     282.087
  C       12.691      13.551     283.697
  N       17.201      15.830     282.865
  C       16.400      15.105     282.056
  N       15.199      14.563     282.337
  C       14.815      14.868     283.588
  C       15.522      15.605     284.524
  C       16.779      16.091     284.125
  N       17.621      16.791     284.959
  N       14.824      15.683     285.715
  C       13.722      14.994     285.500
  N       13.668      14.483     284.229
  O       13.583      11.449     288.972
  O       11.703       9.930     288.206
  H       14.631      12.921     282.087
  H       11.365      10.324     289.033
  H       16.779      14.930     281.052
  H       12.944      14.813     286.231
  H       12.214      14.023     282.828
  H       13.999      11.849     284.099
  H       12.288      10.261     283.434
  H       10.205      11.876     284.338
  H       10.672      11.349     286.547
  H       18.541      17.016     284.610
  H       17.381      16.883     285.934
  H       11.514      10.057     285.677
  P       10.168      10.520     281.672
  C       10.827      10.427     279.201
  O        9.871      10.885     280.143
  O        8.955      10.383     282.530
  O       10.976       9.140     281.574
  H       10.349       8.395     281.558
  H       11.713      11.065     279.240
  H       10.393      10.479     278.199
  H       11.114       9.391     279.408
  H       14.458       7.395     287.328
  H       12.777       7.825     287.127
  H       13.514       7.895     288.710

 3  4  5  6  7  8  9  10  11  12  22  25  29  30  31  32 0
 6-311+G(2d,p)
 ****
 33  36  37 0
 6-311+G(2d,p)
 ****
 1  2  13  14  15  16  17  18  19  20  21  23  24  26 0
 3-21G
 ****
 27  28  34  35  38  39  40  41  42  43  44  45  46  47  48 0
 3-21G
 ****


