%nproc=1
%NoSave
%Mem=1900MB
#P OB98/GEN NMR

erre ene a

0 1
  C      225.987    -673.361      62.983
  O      226.209    -672.579      61.833
  H      225.913    -674.411      62.690
  H      225.052    -673.066      63.465
  H      226.820    -673.253      63.692
  P      226.544    -671.025      62.067
  C      225.094    -668.988      62.773
  O      225.139    -670.255      62.124
  C      223.906    -668.174      62.267
  O      222.674    -668.894      62.506
  C      223.752    -666.812      62.940
  O      224.601    -665.834      62.360
  C      222.286    -666.524      62.648
  O      222.142    -666.100      61.276
  C      221.647    -667.905      62.832
  N      218.421    -666.402      66.453
  C      218.641    -665.883      65.184
  N      217.906    -664.811      64.832
  N      219.513    -666.383      64.338
  C      220.187    -667.453      64.826
  C      220.055    -668.048      66.065
  C      219.088    -667.497      66.986
  O      218.836    -667.925      68.108
  N      220.899    -669.121      66.193
  C      221.560    -669.147      65.052
  N      221.171    -668.156      64.191
  O      227.168    -670.565      60.661
  O      227.480    -670.741      63.196
  H      221.278    -665.656      61.213
  H      227.872    -669.913      60.833
  H      217.751    -665.972      67.065
  H      222.324    -669.877      64.796
  H      220.803    -668.076      62.161
  H      221.880    -665.737      63.276
  H      217.260    -664.356      65.455
  H      223.900    -666.882      64.023
  H      218.029    -664.435      63.891
  H      224.015    -668.061      61.186
  H      226.024    -668.448      62.565
  H      225.012    -669.156      63.850
  P      225.015    -664.576      63.268
  C      223.676    -662.740      64.536
  O      223.641    -663.818      63.601
  O      225.728    -663.602      62.219
  O      225.885    -664.891      64.432
  H      226.334    -662.986      62.690
  H      222.691    -662.338      64.654
  H      224.333    -661.976      64.175
  H      224.030    -663.098      65.480

 6  7  8  9  10  11  12  13  14  15  26  29  33  34 0
 6-311+G(2d,p)
 ****
 36  38  39  40  41 0
 6-311+G(2d,p)
 ****
 1  2  3  4  5  16  17  18  19  20  21  22  23  24  25 0
 3-21G
 ****
 27  28  30  31  32  35  37  42  43  44  45  46  47 0
 3-21G
 ****
 48  49 0
 3-21G
 ****


