%nproc=1
%NoSave
%Mem=1900MB
#P OB98/GEN NMR

erre ene a

0 1
  C     -183.436     832.552    -342.403
  O     -182.056     832.648    -342.679
  H     -183.650     831.539    -342.047
  H     -184.018     832.721    -343.314
  H     -183.732     833.263    -341.635
  P     -181.463     834.017    -343.273
  C     -179.161     833.507    -342.256
  O     -179.885     833.753    -343.459
  C     -177.647     833.499    -342.512
  O     -177.276     832.262    -343.192
  C     -177.167     834.664    -343.391
  O     -176.005     835.266    -342.811
  C     -176.788     833.996    -344.712
  O     -175.832     834.743    -345.464
  C     -176.318     832.624    -344.203
  N     -176.252     831.637    -345.274
  C     -175.133     831.716    -346.120
  O     -174.275     832.589    -345.930
  N     -175.042     830.865    -347.179
  C     -176.011     830.028    -347.429
  N     -175.871     829.227    -348.515
  C     -177.221     829.922    -346.575
  C     -177.270     830.748    -345.537
  O     -181.812     835.236    -342.479
  O     -181.985     834.081    -344.788
  H     -175.604     834.230    -346.275
  H     -181.972     835.010    -345.090
  H     -177.986     829.219    -346.816
  H     -178.117     830.756    -344.856
  H     -175.340     832.704    -343.729
  H     -177.684     833.884    -345.329
  H     -177.932     835.432    -343.545
  H     -177.131     833.487    -341.549
  H     -175.028     829.332    -349.066
  H     -179.479     832.539    -341.840
  H     -176.565     828.552    -348.809
  H     -179.398     834.304    -341.542
  P     -175.945     836.869    -342.854
  C     -176.388     837.026    -340.287
  O     -175.548     837.386    -341.381
  O     -177.477     837.302    -343.010
  O     -175.102     837.398    -343.968
  H     -177.623     837.667    -343.898
  H     -175.994     837.442    -339.383
  H     -176.426     835.960    -340.202
  H     -177.374     837.406    -340.454

 6  7  8  9  10  11  12  13  14  15  16  26  30  31  32  33  35 0
 6-311+G(2d,p)
 ****
 37  38 0
 6-311+G(2d,p)
 ****
 1  2  3  4  5  17  18  19  20  21  22  23  24  25 0
 3-21G
 ****
 27  28  29  34  36  39  40  41  42  43  44  45  46 0
 3-21G
 ****


