%nproc=1
%NoSave
%Mem=1900MB
#P OB98/GEN NMR

erre ene a

0 1
  C      -97.347    -214.591      85.449
  O      -96.958    -215.949      85.633
  P      -97.695    -216.994      86.584
  C      -95.765    -217.799      88.179
  O      -96.626    -218.074      87.083
  C      -94.400    -218.479      87.994
  O      -94.582    -219.924      88.087
  C      -93.780    -218.190      86.622
  O      -92.382    -217.927      86.672
  C      -94.233    -219.377      85.789
  O      -93.450    -219.581      84.623
  C      -94.221    -220.508      86.814
  N      -94.922    -224.807      84.155
  C      -93.882    -223.903      84.097
  N      -92.904    -224.161      83.204
  N      -93.814    -222.828      84.835
  C      -94.892    -222.647      85.628
  C      -95.991    -223.463      85.763
  C      -96.032    -224.677      84.977
  O      -96.922    -225.524      85.005
  N      -96.881    -222.956      86.676
  C      -96.333    -221.826      87.074
  N      -95.117    -221.598      86.472
  O      -99.000    -217.519      86.090
  O      -97.991    -216.145      87.924
  H      -93.575    -218.809      84.040
  H      -98.823    -216.502      88.295
  H      -94.912    -225.631      83.578
  H      -96.760    -221.148      87.803
  H      -93.232    -220.956      86.920
  H      -95.258    -219.174      85.454
  H      -92.954    -224.900      82.520
  H      -94.197    -217.270      86.194
  H      -92.264    -223.388      83.009
  H      -93.737    -218.169      88.808
  H      -96.266    -218.205      89.065
  H      -95.655    -216.724      88.325
  P      -91.636    -216.533      86.898
  C      -89.712    -217.057      85.287
  O      -90.074    -216.741      86.618
  O      -91.686    -216.287      88.478
  O      -92.245    -215.376      86.175
  H      -92.185    -215.469      88.667
  H      -88.684    -217.429      85.281
  H      -89.765    -216.157      84.667
  H      -90.371    -217.826      84.877
  H      -96.680    -214.119      84.758
  H      -97.309    -214.079      86.388
  H      -98.344    -214.555      85.063

 3  4  5  6  7  8  9  10  11  12  23  26  30  31 0
 6-311+G(2d,p)
 ****
 33  35  36  37  38 0
 6-311+G(2d,p)
 ****
 1  2  13  14  15  16  17  18  19  20  21  22  24  25 0
 3-21G
 ****
 27  28  29  32  34  39  40  41  42  43  44  45  46  47  48  49 0
 3-21G
 ****


