%nproc=1
%NoSave
%Mem=1900MB
#P OB98/GEN NMR

erre ene a

0 1
  C       88.032       4.399     975.178
  O       87.301       5.460     975.759
  H       87.643       3.449     975.561
  H       89.089       4.473     975.444
  H       87.917       4.408     974.090
  P       87.676       6.964     975.352
  C       89.321       7.205     977.356
  O       88.109       7.647     976.749
  C       89.343       7.590     978.821
  O       89.696       8.980     979.006
  C       88.012       7.435     979.554
  O       87.659       6.089     979.811
  C       88.312       8.207     980.822
  O       89.141       7.425     981.684
  C       89.079       9.430     980.251
  N       88.218      10.588     980.013
  C       88.510      11.752     980.739
  O       89.451      11.767     981.523
  N       87.703      12.856     980.573
  C       86.686      12.794     979.760
  N       85.933      13.922     979.638
  C       86.341      11.583     978.997
  C       87.128      10.529     979.170
  O       86.649       7.714     974.565
  O       89.089       6.839     974.609
  H       89.300       7.954     982.490
  H       89.366       7.745     974.328
  H       85.458      11.576     978.365
  H       86.918       9.599     978.637
  H       89.891       9.732     980.921
  H       87.417       8.475     981.389
  H       87.206       7.954     979.003
  H       90.131       6.995     979.316
  H       86.194      14.737     980.177
  H       90.159       7.654     976.806
  H       85.072      13.953     979.093
  H       89.397       6.116     977.271
  P       86.496       5.438     978.891
  C       84.387       6.612     979.891
  O       85.164       5.442     979.780
  O       86.917       3.900     978.797
  O       86.349       6.082     977.541
  H       87.391       3.723     977.959
  H       83.544       6.422     980.521
  H       84.047       6.908     978.920
  H       84.980       7.395     980.316

 6  7  8  9  10  11  12  13  14  15  16  26  30  31  32  33  35 0
 6-311+G(2d,p)
 ****
 37  38 0
 6-311+G(2d,p)
 ****
 1  2  3  4  5  17  18  19  20  21  22  23  24  25 0
 3-21G
 ****
 27  28  29  34  36  39  40  41  42  43  44  45  46 0
 3-21G
 ****


