%nproc=1
%NoSave
%Mem=1900MB
#P OB98/GEN NMR

erre ene a

0 1
  C       -8.671    -137.618    -559.801
  O       -8.849    -137.057    -561.105
  P       -7.731    -136.006    -561.585
  C       -7.291    -133.478    -561.197
  O       -8.253    -134.531    -561.202
  C       -7.952    -132.122    -561.502
  O       -8.525    -132.115    -562.841
  C       -9.074    -131.746    -560.528
  O       -9.038    -130.323    -560.371
  C      -10.328    -132.126    -561.304
  O      -11.486    -131.477    -560.776
  C       -9.910    -131.693    -562.703
  N      -14.200    -131.151    -565.318
  C      -13.722    -130.437    -564.238
  N      -14.475    -129.394    -563.822
  N      -12.599    -130.722    -563.620
  C      -11.931    -131.763    -564.172
  C      -12.293    -132.540    -565.252
  C      -13.554    -132.237    -565.905
  O      -14.018    -132.830    -566.867
  N      -11.346    -133.490    -565.529
  C      -10.439    -133.328    -564.578
  N      -10.729    -132.261    -563.761
  O       -7.855    -136.049    -563.183
  O       -6.356    -136.341    -561.118
  H      -11.595    -131.768    -559.850
  H       -7.145    -136.605    -563.555
  H      -15.072    -130.899    -565.748
  H       -9.562    -133.933    -564.439
  H       -9.949    -130.605    -562.838
  H      -10.493    -133.207    -561.255
  H      -15.314    -129.094    -564.283
  H       -9.015    -132.246    -559.553
  H      -14.123    -128.825    -563.055
  H       -7.173    -131.352    -561.479
  H       -6.526    -133.680    -561.944
  H       -6.781    -133.462    -560.229
  P       -8.480    -129.744    -558.986
  C       -9.492    -129.019    -556.714
  O       -9.733    -129.475    -558.030
  O       -7.988    -128.263    -559.377
  O       -7.353    -130.530    -558.384
  H       -7.159    -128.058    -558.903
  H      -10.367    -128.451    -556.369
  H       -8.610    -128.374    -556.662
  H       -9.353    -129.878    -556.051
  H       -9.470    -138.298    -559.593
  H       -8.671    -136.834    -559.073
  H       -7.738    -138.141    -559.762

 3  4  5  6  7  8  9  10  11  12  23  26  30  31 0
 6-311+G(2d,p)
 ****
 33  35  36  37  38 0
 6-311+G(2d,p)
 ****
 1  2  13  14  15  16  17  18  19  20  21  22  24  25 0
 3-21G
 ****
 27  28  29  32  34  39  40  41  42  43  44  45  46  47  48  49 0
 3-21G
 ****


