%nproc=1
%NoSave
%Mem=1900MB
#P OB98/GEN NMR

erre ene a

0 1
  C       82.025      -1.576    -125.547
  O       83.342      -1.505    -125.036
  H       81.809      -0.655    -126.100
  H       81.309      -1.667    -124.724
  H       81.920      -2.430    -126.225
  P       83.931      -2.849    -124.395
  C       83.284      -2.092    -121.965
  O       83.180      -3.076    -122.988
  C       83.692      -2.741    -120.645
  O       82.680      -3.661    -120.195
  C       84.946      -3.599    -120.734
  O       86.126      -2.831    -120.863
  C       84.856      -4.365    -119.418
  O       85.406      -3.613    -118.331
  C       83.330      -4.547    -119.247
  N       82.928      -5.931    -119.413
  C       83.105      -6.749    -118.289
  O       83.557      -6.274    -117.240
  N       82.804      -8.081    -118.387
  C       82.385      -8.568    -119.517
  N       82.139      -9.900    -119.559
  C       82.185      -7.741    -120.729
  C       82.471      -6.442    -120.606
  O       85.405      -2.406    -123.956
  O       83.894      -4.039    -125.292
  H       86.361      -3.502    -118.525
  H       85.428      -1.574    -123.449
  H       81.825      -8.192    -121.641
  H       82.353      -5.766    -121.445
  H       83.014      -4.214    -118.245
  H       85.412      -5.309    -119.467
  H       84.851      -4.323    -121.559
  H       83.802      -1.951    -119.890
  H       82.343     -10.439    -118.725
  H       82.333      -1.556    -121.846
  H       81.887     -10.401    -120.402
  H       84.037      -1.362    -122.279
  P       87.433      -3.425    -121.575
  C       88.469      -4.026    -119.292
  O       88.051      -4.513    -120.560
  O       88.410      -2.414    -122.058
  O       86.825      -4.358    -122.729
  H       86.252      -5.079    -122.416
  H       88.859      -4.835    -118.710
  H       87.634      -3.591    -118.784
  H       89.229      -3.285    -119.427

 6  7  8  9  10  11  12  13  14  15  16  26  30  31  32  33  35 0
 6-311+G(2d,p)
 ****
 37  38 0
 6-311+G(2d,p)
 ****
 1  2  3  4  5  17  18  19  20  21  22  23  24  25 0
 3-21G
 ****
 27  28  29  34  36  39  40  41  42  43  44  45  46 0
 3-21G
 ****


