%nproc=1
%NoSave
%Mem=1900MB
#P OB98/GEN NMR

erre ene a

0 1
  C      345.922     -70.885     202.636
  O      345.624     -71.465     203.911
  P      344.728     -72.798     203.905
  C      342.321     -72.004     204.458
  O      343.239     -72.409     203.452
  C      341.382     -70.900     203.971
  O      340.532     -71.381     202.890
  C      340.457     -70.350     205.059
  O      340.250     -68.960     204.790
  C      339.159     -71.093     204.813
  O      338.049     -70.399     205.392
  C      339.162     -71.165     203.276
  N      338.276     -72.200     202.744
  C      336.994     -71.803     202.345
  O      336.629     -70.639     202.508
  N      336.151     -72.739     201.809
  C      336.524     -73.975     201.735
  N      335.639     -74.863     201.199
  C      337.844     -74.454     202.198
  C      338.658     -73.520     202.684
  O      344.576     -73.145     205.460
  O      345.348     -73.927     203.152
  H      337.227     -70.812     205.058
  H      344.797     -74.083     205.617
  H      338.108     -75.502     202.135
  H      339.646     -73.768     203.045
  H      338.840     -70.202     202.846
  H      339.205     -72.096     205.243
  H      340.854     -70.476     206.069
  H      341.994     -70.089     203.560
  H      334.748     -74.493     200.883
  H      342.869     -71.642     205.333
  H      335.828     -75.847     201.090
  H      341.757     -72.878     204.799
  P      340.383     -67.921     206.007
  C      338.046     -68.166     207.035
  O      339.415     -68.501     207.147
  O      339.524     -66.677     205.460
  O      341.750     -67.495     206.435
  H      339.585     -65.941     206.094
  H      337.488     -68.723     207.797
  H      337.659     -68.433     206.052
  H      337.906     -67.094     207.223
  H      346.521     -70.009     202.774
  H      345.010     -70.620     202.143
  H      346.458     -71.593     202.039

 3  4  5  6  7  8  9  10  11  12  13  21  23  27  28  29  30  32 0
 6-311+G(2d,p)
 ****
 34  35 0
 6-311+G(2d,p)
 ****
 1  2  14  15  16  17  18  19  20  22  24  25  26 0
 3-21G
 ****
 31  33  36  37  38  39  40  41  42  43  44  45  46 0
 3-21G
 ****


