%nproc=1
%NoSave
%Mem=1900MB
#P OB98/GEN NMR

erre ene a

0 1
  C       22.802      83.199     152.268
  O       23.226      83.820     153.464
  H       21.732      82.982     152.345
  H       23.339      82.260     152.118
  H       22.968      83.866     151.416
  P       24.786      84.172     153.583
  C       24.902      82.533     155.597
  O       25.221      83.823     155.089
  C       25.027      82.537     157.121
  O       26.400      82.772     157.500
  C       24.226      83.642     157.808
  O       22.853      83.324     157.904
  C       24.916      83.697     159.159
  O       24.400      82.703     160.056
  C       26.390      83.409     158.794
  N       27.215      84.616     158.821
  C       27.378      85.205     160.068
  O       26.872      84.761     161.100
  N       28.118      86.359     160.094
  C       28.663      86.981     159.007
  O       29.252      88.055     159.083
  C       28.464      86.304     157.713
  C       27.751      85.180     157.675
  O       24.802      85.770     153.544
  O       25.652      83.572     152.527
  H       25.080      86.080     152.662
  H       23.453      82.907     160.177
  H       28.239      86.805     160.989
  H       28.889      86.772     156.835
  H       27.575      84.667     156.736
  H       26.824      82.690     159.503
  H       24.771      84.663     159.646
  H       24.380      84.596     157.287
  H       24.722      81.552     157.498
  H       25.594      81.795     155.185
  H       23.882      82.271     155.295
  P       21.781      84.356     157.303
  C       21.205      84.872     159.819
  O       20.747      84.689     158.488
  O       20.951      83.403     156.321
  O       22.394      85.552     156.652
  H       20.843      82.498     156.663
  H       20.372      85.084     160.457
  H       21.895      85.689     159.850
  H       21.693      83.981     160.154

 6  7  8  9  10  11  12  13  14  15  16  27  31  32  33  34  35 0
 6-311+G(2d,p)
 ****
 36  37 0
 6-311+G(2d,p)
 ****
 1  2  3  4  5  17  18  19  20  21  22  23  24  25 0
 3-21G
 ****
 26  28  29  30  38  39  40  41  42  43  44  45 0
 3-21G
 ****


