%nproc=1
%NoSave
%Mem=1900MB
#P OB98/GEN NMR

erre ene a

0 1
  C     -484.284    -283.087     -32.352
  O     -483.560    -282.534     -31.267
  H     -483.591    -283.420     -33.131
  H     -484.856    -283.943     -31.992
  H     -484.976    -282.343     -32.763
  P     -482.634    -281.264     -31.602
  C     -480.268    -280.895     -32.585
  O     -481.244    -281.839     -32.175
  C     -479.178    -281.594     -33.397
  O     -478.502    -282.536     -32.523
  C     -479.700    -282.363     -34.623
  O     -478.952    -282.014     -35.798
  C     -479.425    -283.821     -34.291
  O     -479.087    -284.599     -35.433
  C     -478.269    -283.725     -33.298
  N     -477.283    -288.729     -33.224
  C     -476.932    -287.768     -34.094
  N     -477.145    -286.437     -34.012
  C     -477.767    -286.123     -32.855
  C     -478.163    -286.997     -31.855
  C     -477.920    -288.365     -32.075
  N     -478.322    -289.357     -31.213
  N     -478.774    -286.312     -30.820
  C     -478.788    -285.048     -31.217
  N     -478.199    -284.893     -32.445
  O     -482.244    -280.701     -30.152
  O     -483.297    -280.217     -32.437
  H     -478.298    -284.190     -35.840
  H     -482.588    -279.790     -30.064
  H     -476.420    -288.108     -34.994
  H     -479.240    -284.230     -30.672
  H     -477.304    -283.611     -33.807
  H     -480.314    -284.258     -33.821
  H     -480.764    -282.189     -34.806
  H     -478.436    -280.844     -33.706
  H     -479.813    -280.429     -31.704
  H     -478.214    -290.313     -31.508
  H     -478.892    -289.095     -30.414
  H     -480.749    -280.117     -33.186
  P     -479.463    -280.718     -36.605
  C     -480.841    -280.296     -38.774
  O     -480.078    -281.221     -38.009
  O     -478.099    -279.983     -37.015
  O     -480.351    -279.822     -35.802
  H     -478.105    -279.076     -36.686
  H     -481.180    -280.770     -39.672
  H     -480.232    -279.452     -39.024
  H     -481.685    -279.970     -38.202

 6  7  8  9  10  11  12  13  14  15  25  28  32  33  34  35 0
 6-311+G(2d,p)
 ****
 36  39  40 0
 6-311+G(2d,p)
 ****
 1  2  3  4  5  16  17  18  19  20  21  22  23  24 0
 3-21G
 ****
 26  27  29  30  31  37  38  41  42  43  44  45  46  47  48 0
 3-21G
 ****


