%nproc=1
%NoSave
%Mem=1900MB
#P OB98/GEN NMR

erre ene a

0 1
  C       27.523     -39.525     194.284
  O       26.902     -38.793     193.247
  H       28.330     -38.918     194.704
  H       27.949     -40.457     193.901
  H       26.803     -39.744     195.078
  P       25.753     -39.517     192.388
  C       27.454     -40.080     190.516
  O       26.262     -39.393     190.867
  C       28.243     -39.274     189.485
  O       29.515     -39.897     189.204
  C       27.568     -39.139     188.122
  O       26.480     -38.227     188.120
  C       28.745     -38.644     187.293
  O       28.982     -37.254     187.577
  C       29.895     -39.524     187.848
  N       30.138     -40.719     187.039
  C       31.278     -40.705     186.227
  O       32.024     -39.725     186.214
  N       31.532     -41.787     185.420
  C       30.708     -42.791     185.408
  N       30.979     -43.817     184.556
  C       29.502     -42.857     186.261
  C       29.277     -41.796     187.035
  O       24.353     -39.052     192.633
  O       25.966     -41.079     192.672
  H       28.233     -36.755     187.207
  H       25.269     -41.569     192.171
  H       28.843     -43.711     186.205
  H       28.402     -41.763     187.680
  H       30.823     -38.951     187.919
  H       28.582     -38.736     186.216
  H       27.259     -40.118     187.741
  H       28.459     -38.292     189.929
  H       31.790     -43.719     183.959
  H       27.177     -41.062     190.118
  H       30.263     -44.484     184.287
  H       28.084     -40.217     191.400
  P       25.055     -38.761     187.608
  C       25.179     -36.793     185.901
  O       24.379     -37.556     186.788
  O       24.196     -38.832     188.953
  O       25.077     -40.061     186.866
  H       24.228     -39.729     189.345
  H       24.578     -36.037     185.440
  H       25.587     -37.434     185.147
  H       25.976     -36.332     186.446

 6  7  8  9  10  11  12  13  14  15  16  26  30  31  32  33  35 0
 6-311+G(2d,p)
 ****
 37  38 0
 6-311+G(2d,p)
 ****
 1  2  3  4  5  17  18  19  20  21  22  23  24  25 0
 3-21G
 ****
 27  28  29  34  36  39  40  41  42  43  44  45  46 0
 3-21G
 ****


