%nproc=1
%NoSave
%Mem=1900MB
#P OB98/GEN NMR

erre ene a

0 1
  C      -66.026     117.191     -69.194
  O      -66.729     118.067     -70.052
  P      -67.502     117.519     -71.341
  C      -65.730     118.405     -72.966
  O      -66.421     117.256     -72.494
  C      -65.823     118.524     -74.487
  O      -65.028     117.477     -75.101
  C      -67.250     118.417     -75.039
  O      -67.354     119.340     -76.128
  C      -67.316     116.988     -75.543
  O      -68.329     116.805     -76.521
  C      -65.880     116.796     -76.044
  N      -65.518     115.393     -76.171
  C      -66.005     114.715     -77.290
  O      -66.810     115.262     -78.044
  N      -65.577     113.430     -77.513
  C      -64.883     112.820     -76.602
  N      -64.423     111.573     -76.892
  C      -64.565     113.428     -75.295
  C      -64.870     114.717     -75.164
  O      -68.677     118.334     -71.768
  O      -67.954     116.038     -70.929
  H      -68.915     115.945     -71.078
  H      -69.206     116.900     -76.091
  H      -64.097     112.840     -74.521
  H      -64.652     115.261     -74.253
  H      -65.743     117.287     -77.015
  H      -67.524     116.312     -74.705
  H      -68.013     118.653     -74.292
  H      -65.377     119.483     -74.781
  H      -64.626     111.205     -77.813
  H      -64.681     118.313     -72.680
  H      -63.633     111.160     -76.399
  H      -66.130     119.304     -72.484
  P      -68.695     120.215     -76.261
  C      -69.406     118.714     -78.254
  O      -69.781     119.334     -77.042
  O      -68.269     121.289     -77.378
  O      -69.154     120.923     -75.029
  H      -68.813     122.090     -77.270
  H      -70.283     118.217     -78.677
  H      -68.634     117.963     -78.073
  H      -69.043     119.455     -78.970
  H      -65.582     117.751     -68.398
  H      -65.260     116.689     -69.747
  H      -66.704     116.470     -68.788

 3  4  5  6  7  8  9  10  11  12  13  24  27  28  29  30  32 0
 6-311+G(2d,p)
 ****
 34  35 0
 6-311+G(2d,p)
 ****
 1  2  14  15  16  17  18  19  20  21  22  23  25  26 0
 3-21G
 ****
 31  33  36  37  38  39  40  41  42  43  44  45  46 0
 3-21G
 ****


