%nproc=1
%NoSave
%Mem=1900MB
#P OB98/GEN NMR

erre ene a

0 1
  C     -235.330     156.174     385.494
  O     -234.113     155.499     385.259
  H     -235.284     157.153     385.010
  H     -235.471     156.319     386.568
  H     -236.175     155.618     385.085
  P     -234.026     153.933     385.575
  C     -231.707     153.803     386.703
  O     -232.472     153.532     385.540
  C     -230.325     154.355     386.329
  O     -229.703     153.457     385.375
  C     -230.434     155.724     385.650
  O     -229.269     156.520     385.860
  C     -230.524     155.359     384.179
  O     -230.125     156.424     383.312
  C     -229.614     154.136     384.110
  N     -228.306     152.192     379.583
  C     -227.768     153.267     380.261
  N     -226.740     153.909     379.650
  N     -228.207     153.692     381.418
  C     -229.281     153.003     381.872
  C     -229.918     151.934     381.283
  C     -229.399     151.456     380.020
  O     -229.854     150.519     379.366
  N     -230.979     151.505     382.039
  C     -230.985     152.311     383.081
  N     -229.961     153.221     383.037
  O     -234.587     153.246     384.241
  O     -234.776     153.475     386.788
  H     -229.179     156.593     383.477
  H     -234.906     152.347     384.432
  H     -227.911     151.891     378.711
  H     -231.697     152.267     383.896
  H     -228.571     154.436     383.965
  H     -231.567     155.130     383.944
  H     -226.511     153.737     378.686
  H     -231.309     156.283     385.970
  H     -226.549     154.861     379.971
  H     -229.677     154.376     387.214
  H     -231.611     152.861     387.249
  H     -232.238     154.499     387.355
  P     -229.274     157.577     387.065
  C     -227.215     158.942     386.119
  O     -227.838     158.264     387.188
  O     -229.374     156.667     388.373
  O     -230.380     158.585     386.996
  H     -230.217     156.831     388.838
  H     -226.265     159.316     386.439
  H     -227.832     159.758     385.806
  H     -227.075     158.266     385.301

 6  7  8  9  10  11  12  13  14  15  26  29  33  34 0
 6-311+G(2d,p)
 ****
 36  38  39  40  41 0
 6-311+G(2d,p)
 ****
 1  2  3  4  5  16  17  18  19  20  21  22  23  24  25 0
 3-21G
 ****
 27  28  30  31  32  35  37  42  43  44  45  46  47 0
 3-21G
 ****
 48  49 0
 3-21G
 ****


