%nproc=1
%NoSave
%Mem=1900MB
#P OB98/GEN NMR

erre ene a

0 1
  C      401.999     -72.665     300.638
  O      402.806     -72.552     299.456
  P      402.392     -71.665     298.186
  C      401.574     -69.217     298.428
  O      402.670     -70.120     298.546
  C      401.829     -67.945     299.242
  O      402.060     -68.279     300.635
  C      403.067     -67.150     298.841
  O      402.888     -66.453     297.621
  C      403.251     -66.253     300.060
  O      402.429     -65.078     299.975
  C      402.763     -67.154     301.211
  N      403.838     -67.599     302.080
  C      403.866     -67.075     303.374
  O      403.049     -66.210     303.713
  N      404.823     -67.525     304.253
  C      405.734     -68.348     303.838
  N      406.650     -68.774     304.755
  C      405.829     -68.822     302.445
  C      404.856     -68.415     301.627
  O      401.008     -71.925     297.688
  O      403.477     -71.998     297.060
  H      403.097     -71.848     296.177
  H      402.665     -64.627     299.144
  H      406.632     -69.476     302.133
  H      404.841     -68.729     300.587
  H      402.014     -66.626     301.814
  H      404.291     -65.912     300.167
  H      403.924     -67.835     298.758
  H      400.933     -67.313     299.178
  H      406.551     -68.439     305.707
  H      400.673     -69.710     298.811
  H      407.388     -69.434     304.545
  H      401.415     -68.979     297.370
  P      403.473     -67.140     296.292
  C      402.587     -68.767     294.473
  O      402.292     -67.999     295.630
  O      404.478     -68.246     296.858
  O      404.169     -66.197     295.364
  H      405.274     -68.290     296.295
  H      401.894     -69.615     294.441
  H      403.609     -69.144     294.491
  H      402.432     -68.155     293.584
  H      402.484     -73.309     301.341
  H      401.044     -73.073     300.380
  H      401.867     -71.697     301.074

 3  4  5  6  7  8  9  10  11  12  13  24  27  28  29  30  32 0
 6-311+G(2d,p)
 ****
 34  35 0
 6-311+G(2d,p)
 ****
 1  2  14  15  16  17  18  19  20  21  22  23  25  26 0
 3-21G
 ****
 31  33  36  37  38  39  40  41  42  43  44  45  46 0
 3-21G
 ****


