%nproc=1
%NoSave
%Mem=1900MB
#P OB98/GEN NMR

erre ene a

0 1
  C     -972.630    -828.839    -696.621
  O     -973.888    -828.220    -696.770
  P     -974.899    -828.680    -697.934
  C     -975.196    -828.330    -700.456
  O     -974.422    -828.005    -699.303
  C     -975.184    -827.155    -701.440
  O     -973.833    -826.898    -701.925
  C     -976.020    -827.385    -702.688
  O     -977.400    -827.295    -702.423
  C     -975.494    -826.291    -703.594
  O     -976.089    -825.025    -703.287
  C     -974.009    -826.277    -703.222
  N     -973.151    -826.940    -704.216
  C     -972.292    -826.110    -704.955
  O     -972.321    -824.884    -704.784
  N     -971.426    -826.687    -705.849
  C     -971.494    -827.953    -706.102
  N     -970.574    -828.473    -706.938
  C     -972.503    -828.827    -705.450
  C     -973.282    -828.263    -704.538
  O     -976.342    -828.523    -697.630
  O     -974.527    -830.223    -698.150
  H     -975.368    -830.753    -698.150
  H     -975.715    -824.742    -702.429
  H     -972.566    -829.875    -705.750
  H     -974.035    -828.854    -704.001
  H     -973.637    -825.236    -703.095
  H     -975.693    -826.490    -704.643
  H     -975.777    -828.360    -703.118
  H     -975.545    -826.240    -700.917
  H     -969.900    -827.838    -707.332
  H     -976.216    -828.514    -700.124
  H     -970.344    -829.456    -706.952
  H     -974.781    -829.219    -700.925
  P     -978.376    -828.122    -703.405
  C     -978.486    -828.483    -705.978
  O     -977.987    -827.699    -704.909
  O     -979.806    -827.417    -703.201
  O     -978.454    -829.583    -703.138
  H     -980.518    -828.069    -703.250
  H     -978.407    -827.896    -706.907
  H     -979.535    -828.744    -705.809
  H     -977.865    -829.396    -706.099
  H     -972.110    -828.396    -695.797
  H     -972.059    -828.706    -697.516
  H     -972.766    -829.884    -696.436

 3  4  5  6  7  8  9  10  11  12  13  24  27  28  29  30  32 0
 6-311+G(2d,p)
 ****
 34  35 0
 6-311+G(2d,p)
 ****
 1  2  14  15  16  17  18  19  20  21  22  23  25  26 0
 3-21G
 ****
 31  33  36  37  38  39  40  41  42  43  44  45  46 0
 3-21G
 ****


