%nproc=1
%NoSave
%Mem=1900MB
#P OB98/GEN NMR

erre ene a

0 1
  C      -39.188     -64.065     159.439
  O      -38.174     -64.480     158.549
  P      -38.427     -64.544     156.970
  C      -38.729     -67.096     157.154
  O      -39.291     -65.872     156.693
  C      -38.646     -68.108     156.006
  O      -38.202     -69.392     156.547
  C      -40.002     -68.333     155.307
  O      -39.968     -68.176     153.888
  C      -40.410     -69.711     155.802
  O      -41.362     -70.359     154.980
  C      -39.050     -70.399     155.962
  N      -39.126     -71.607     156.780
  C      -39.148     -72.827     156.109
  O      -39.098     -72.950     154.890
  N      -39.295     -73.937     156.893
  C      -39.535     -73.946     158.234
  O      -39.755     -74.975     158.858
  C      -39.539     -72.625     158.882
  C      -39.316     -71.534     158.145
  O      -37.208     -64.418     156.122
  O      -39.511     -63.388     156.730
  H      -41.294     -71.319     155.141
  H      -40.346     -63.503     157.216
  H      -39.313     -74.827     156.420
  H      -39.737     -72.600     159.944
  H      -39.314     -70.547     158.595
  H      -38.621     -70.664     154.995
  H      -40.873     -69.588     156.789
  H      -40.742     -67.595     155.638
  H      -37.893     -67.750     155.300
  H      -39.366     -67.500     157.943
  H      -37.742     -66.910     157.592
  P      -41.234     -67.830     152.972
  C      -41.482     -70.279     152.132
  O      -42.084     -69.170     152.769
  O      -40.926     -67.082     151.718
  O      -42.165     -66.953     153.936
  H      -42.693     -66.332     153.402
  H      -42.262     -70.862     151.634
  H      -41.001     -70.909     152.886
  H      -40.744     -69.965     151.390
  H      -38.816     -64.094     160.442
  H      -40.029     -64.720     159.352
  H      -39.487     -63.066     159.198

 3  4  5  6  7  8  9  10  11  12  13  23  28  29  30  31  32 0
 6-311+G(2d,p)
 ****
 33  34 0
 6-311+G(2d,p)
 ****
 1  2  14  15  16  17  18  19  20  21  22  24  25  26  27 0
 3-21G
 ****
 35  36  37  38  39  40  41  42  43  44  45 0
 3-21G
 ****


