%nproc=1
%NoSave
%Mem=1900MB
#P OB98/GEN NMR

erre ene a

0 1
  C      338.879     -90.357     107.176
  O      338.800     -90.051     108.579
  P      339.381     -91.109     109.643
  C      338.548     -93.325     110.751
  O      338.206     -92.076     110.166
  C      337.341     -93.948     111.475
  O      336.988     -93.152     112.654
  C      336.072     -94.061     110.617
  O      335.370     -95.235     111.042
  C      335.293     -92.815     111.023
  O      333.913     -92.896     110.714
  C      335.604     -92.777     112.515
  N      335.354     -91.476     113.150
  C      334.172     -91.317     113.872
  O      333.298     -92.180     113.972
  N      334.018     -90.094     114.471
  C      334.869     -89.032     114.397
  O      334.656     -87.957     114.930
  C      336.082     -89.253     113.590
  C      336.267     -90.445     113.016
  O      339.656     -90.186     110.924
  O      340.641     -91.809     109.233
  H      333.585     -93.746     111.063
  H      340.534     -90.389     111.292
  H      333.178     -89.963     115.023
  H      336.787     -88.431     113.499
  H      337.161     -90.630     112.423
  H      335.014     -93.548     113.033
  H      335.705     -91.949     110.488
  H      336.283     -94.108     109.539
  H      337.639     -94.939     111.840
  H      339.356     -93.177     111.477
  H      338.913     -94.001     109.970
  P      335.714     -96.633     110.313
  C      335.393     -97.512     107.867
  O      335.475     -96.416     108.740
  O      334.440     -97.506     110.756
  O      337.016     -97.231     110.710
  H      333.605     -97.027     110.668
  H      334.815     -98.336     108.303
  H      336.408     -97.862     107.617
  H      334.894     -97.198     106.942
  H      338.451     -89.555     106.611
  H      338.341     -91.260     106.977
  H      339.904     -90.484     106.896

 3  4  5  6  7  8  9  10  11  12  13  23  28  29  30  31  32 0
 6-311+G(2d,p)
 ****
 33  34 0
 6-311+G(2d,p)
 ****
 1  2  14  15  16  17  18  19  20  21  22  24  25  26 0
 3-21G
 ****
 27  35  36  37  38  39  40  41  42  43  44  45 0
 3-21G
 ****


