%nproc=1
%NoSave
%Mem=1900MB
#P OB98/GEN NMR

erre ene a

0 1
  C      -56.031    -263.540       0.232
  O      -55.174    -262.630       0.884
  H      -56.080    -264.461       0.821
  H      -55.634    -263.777      -0.759
  H      -57.043    -263.133       0.131
  P      -55.258    -261.079       0.499
  C      -53.137    -261.240      -0.965
  O      -54.511    -260.884      -0.913
  C      -52.223    -260.017      -0.873
  O      -50.835    -260.420      -0.909
  C      -52.414    -259.057      -2.055
  O      -53.485    -258.137      -1.923
  C      -51.074    -258.333      -2.092
  O      -51.061    -257.222      -1.189
  C      -50.090    -259.413      -1.622
  N      -45.813    -259.487      -4.427
  C      -46.178    -258.612      -3.418
  N      -45.321    -257.598      -3.166
  N      -47.289    -258.720      -2.740
  C      -48.090    -259.726      -3.163
  C      -47.847    -260.649      -4.163
  C      -46.580    -260.551      -4.871
  O      -46.214    -261.292      -5.781
  N      -48.891    -261.525      -4.309
  C      -49.800    -261.093      -3.457
  N      -49.349    -260.019      -2.720
  O      -54.240    -260.376       1.525
  O      -56.622    -260.467       0.593
  H      -50.147    -256.889      -1.122
  H      -54.505    -259.452       1.673
  H      -44.929    -259.369      -4.899
  H      -50.782    -261.531      -3.313
  H      -49.348    -259.014      -0.923
  H      -50.856    -257.934      -3.085
  H      -44.513    -257.403      -3.741
  H      -52.525    -259.626      -2.988
  H      -45.672    -256.797      -2.632
  H      -52.388    -259.513       0.087
  H      -52.979    -261.752      -1.918
  H      -52.899    -261.954      -0.171
  P      -54.556    -257.982      -3.105
  C      -52.936    -256.272      -4.211
  O      -53.775    -257.396      -4.372
  O      -55.458    -256.755      -2.604
  O      -55.382    -259.202      -3.370
  H      -56.260    -257.079      -2.163
  H      -52.497    -256.017      -5.153
  H      -52.163    -256.502      -3.508
  H      -53.512    -255.446      -3.851

 6  7  8  9  10  11  12  13  14  15  26  29  33  34 0
 6-311+G(2d,p)
 ****
 36  38  39  40  41 0
 6-311+G(2d,p)
 ****
 1  2  3  4  5  16  17  18  19  20  21  22  23  24  25 0
 3-21G
 ****
 27  28  30  31  32  35  37  42  43  44  45  46  47 0
 3-21G
 ****
 48  49 0
 3-21G
 ****


