%nproc=1
%NoSave
%Mem=1900MB
#P OB98/GEN NMR

erre ene a

0 1
  C     -157.271      15.022     380.363
  O     -156.364      14.452     381.285
  H     -157.859      14.224     379.907
  H     -156.727      15.555     379.577
  H     -157.949      15.714     380.879
  P     -155.414      15.469     382.084
  C     -153.498      14.471     380.626
  O     -154.086      15.638     381.198
  C     -153.019      14.784     379.211
  O     -154.150      15.132     378.378
  C     -152.066      15.966     379.125
  O     -150.749      15.629     379.515
  C     -152.190      16.335     377.656
  O     -151.340      15.519     376.835
  C     -153.663      16.035     377.358
  N     -155.912      19.469     374.318
  C     -155.247      18.324     374.045
  N     -154.688      17.456     374.920
  C     -154.895      17.856     376.186
  C     -155.553      18.996     376.613
  C     -156.086      19.827     375.610
  N     -156.740      21.008     375.882
  N     -155.530      19.086     377.990
  C     -154.869      18.021     378.391
  N     -154.470      17.243     377.334
  O     -154.928      14.599     383.337
  O     -156.065      16.743     382.508
  H     -151.420      15.869     375.927
  H     -155.456      14.838     384.122
  H     -155.141      18.075     372.994
  H     -154.649      17.765     379.419
  H     -153.799      15.537     376.388
  H     -151.910      17.377     377.492
  H     -152.446      16.799     379.731
  H     -152.553      13.875     378.794
  H     -154.247      13.673     380.593
  H     -152.663      14.151     381.255
  H     -157.032      21.588     375.114
  H     -156.775      21.342     376.837
  P     -150.080      16.486     380.696
  C     -148.235      17.299     379.035
  O     -149.215      17.649     380.008
  O     -148.969      15.502     381.300
  O     -151.033      16.958     381.739
  H     -148.902      15.632     382.268
  H     -147.753      18.186     378.679
  H     -148.708      16.797     378.217
  H     -147.508      16.651     379.478

 6  7  8  9  10  11  12  13  14  15  25  28  32  33  34  35 0
 6-311+G(2d,p)
 ****
 36  37  40 0
 6-311+G(2d,p)
 ****
 1  2  3  4  5  16  17  18  19  20  21  22  23  24 0
 3-21G
 ****
 26  27  29  30  31  38  39 41  42  43  44  45  46  47  48 0
 3-21G
 ****


