%nproc=1
%NoSave
%Mem=1900MB
#P OB98/GEN NMR

erre ene a

0 1
  C        6.681      25.228    -227.262
  O        6.260      24.798    -228.562
  P        7.245      25.103    -229.793
  C        8.821      23.458    -231.090
  O        7.573      23.674    -230.445
  C        8.958      21.989    -231.481
  O        9.032      21.150    -230.301
  C        7.786      21.445    -232.288
  O        7.823      21.911    -233.628
  C        7.994      19.945    -232.126
  O        9.001      19.476    -233.037
  C        8.514      19.851    -230.673
  N        7.503      19.389    -229.733
  C        7.077      18.072    -229.899
  O        7.497      17.337    -230.792
  N        6.132      17.633    -229.010
  C        5.563      18.376    -228.016
  O        4.727      17.924    -227.243
  C        6.016      19.772    -227.922
  C        6.950      20.209    -228.771
  O        8.585      25.507    -229.023
  O        6.710      26.137    -230.726
  H        8.716      25.009    -228.199
  H        9.526      18.812    -232.548
  H        5.822      16.678    -229.105
  H        5.566      20.397    -227.161
  H        7.294      21.237    -228.721
  H        9.365      19.159    -230.622
  H        7.082      19.373    -232.321
  H        6.841      21.743    -231.817
  H        9.893      21.871    -232.044
  H        9.639      23.729    -230.417
  H        8.883      24.108    -231.967
  P        6.680      22.956    -234.063
  C        6.445      24.624    -236.063
  O        7.084      23.491    -235.517
  O        7.000      24.188    -233.090
  O        5.295      22.414    -233.937
  H        7.947      24.392    -233.035
  H        7.072      25.029    -236.862
  H        6.295      25.399    -235.309
  H        5.481      24.332    -236.485
  H        5.937      24.963    -226.540
  H        6.815      26.290    -227.263
  H        7.606      24.752    -227.011

 3  4  5  6  7  8  9  10  11  12  13  24  28  29  30  31  32 0
 6-311+G(2d,p)
 ****
 33  34 0
 6-311+G(2d,p)
 ****
 1  2  14  15  16  17  18  19  20  21  22  23  25  26  27 0
 3-21G
 ****
 35  36  37  38  39  40  41  42  43  44  45 0
 3-21G
 ****


