%nproc=1
%NoSave
%Mem=1900MB
#P OB98/GEN NMR

erre ene a

0 1
  C       20.465     221.107     118.812
  O       19.560     220.416     119.686
  P       18.458     221.296     120.453
  C       16.660     219.408     120.145
  O       17.397     220.244     121.036
  C       15.616     218.610     120.919
  O       16.257     217.661     121.809
  C       14.711     219.458     121.813
  O       13.753     220.173     121.053
  C       14.135     218.389     122.735
  O       13.057     217.699     122.094
  C       15.345     217.438     122.911
  N       16.012     217.590     124.197
  C       15.949     216.495     125.056
  O       15.351     215.450     124.767
  N       16.583     216.633     126.260
  C       17.226     217.750     126.696
  O       17.788     217.819     127.793
  C       17.219     218.906     125.773
  C       16.623     218.772     124.585
  O       17.699     221.989     119.224
  O       19.052     222.238     121.448
  H       17.639     221.406     118.442
  H       12.672     217.102     122.768
  H       16.557     215.849     126.890
  H       17.707     219.816     126.099
  H       16.600     219.612     123.892
  H       15.014     216.391     122.827
  H       13.751     218.812     123.675
  H       15.324     220.162     122.399
  H       15.003     218.044     120.197
  H       17.337     218.718     119.631
  H       16.191     220.040     119.383
  P       13.333     221.628     121.585
  C       13.916     222.862     119.354
  O       12.938     222.488     120.294
  O       14.757     222.218     122.029
  O       12.320     221.596     122.679
  H       15.457     222.046     121.370
  H       13.426     223.120     118.408
  H       14.622     222.046     119.169
  H       14.461     223.740     119.713
  H       21.140     220.404     118.370
  H       21.019     221.831     119.372
  H       19.910     221.601     118.042

 3  4  5  6  7  8  9  10  11  12  13  24  28  29  30  31  32 0
 6-311+G(2d,p)
 ****
 33  34 0
 6-311+G(2d,p)
 ****
 1  2  14  15  16  17  18  19  20  21  22  23  25  26  27 0
 3-21G
 ****
 35  36  37  38  39  40  41  42  43  44  45 0
 3-21G
 ****


