%nproc=1
%NoSave
%Mem=1900MB
#P OB98/GEN NMR

erre ene a

0 1
  C       68.209     401.078     133.413
  O       66.799     401.128     133.170
  P       66.121     402.542     132.827
  C       65.347     403.359     135.153
  O       66.292     403.515     134.093
  C       65.803     404.129     136.416
  O       65.780     405.570     136.176
  C       64.910     403.845     137.625
  O       65.690     403.888     138.847
  C       63.978     405.038     137.638
  O       63.383     405.230     138.927
  C       64.927     406.153     137.187
  N       62.096     410.263     138.381
  C       62.708     409.333     139.149
  N       63.475     408.293     138.761
  C       63.568     408.252     137.428
  C       62.993     409.117     136.501
  C       62.229     410.163     137.032
  N       61.568     411.081     136.235
  N       63.328     408.748     135.214
  C       64.028     407.652     135.350
  N       64.227     407.306     136.663
  O       64.741     402.485     132.266
  O       67.145     403.179     131.765
  H       64.120     405.406     139.562
  H       66.628     403.612     131.044
  H       62.571     409.462     140.218
  H       64.404     407.034     134.524
  H       65.572     406.491     138.006
  H       63.160     404.874     136.908
  H       64.372     402.887     137.585
  H       66.848     403.866     136.619
  H       65.222     402.305     135.380
  H       60.940     411.729     136.695
  H       61.549     410.947     135.234
  H       64.372     403.710     134.812
  P       65.827     402.483     139.620
  C       63.501     402.519     140.842
  O       64.342     401.944     139.854
  O       66.688     402.568     140.848
  O       66.443     401.525     138.487
  H       65.953     401.551     137.638
  H       62.491     402.096     140.724
  H       63.455     403.603     140.701
  H       63.895     402.283     141.835
  H       68.499     400.070     133.625
  H       68.449     401.702     134.249
  H       68.733     401.425     132.547

 3  4  5  6  7  8  9  10  11  12  22  25  29  30  31  32 0
 6-311+G(2d,p)
 ****
 33  36  37 0
 6-311+G(2d,p)
 ****
 1  2  13  14  15  16  17  18  19  20  21  23  24  26 0
 3-21G
 ****
 27  28  34  35  38  39  40  41  42  43  44  45  46  47  48 0
 3-21G
 ****


