%nproc=1
%NoSave
%Mem=1900MB
#P OB98/GEN NMR

erre ene a

0 1
  C      -48.266      -8.456     -26.340
  O      -48.071      -7.135     -26.804
  H      -47.749      -8.568     -25.383
  H      -47.843      -9.171     -27.049
  H      -49.329      -8.661     -26.189
  P      -48.811      -6.671     -28.149
  C      -46.718      -6.033     -29.498
  O      -47.875      -5.557     -28.829
  C      -45.717      -4.900     -29.714
  O      -45.149      -4.530     -28.432
  C      -44.562      -5.270     -30.651
  O      -44.240      -4.128     -31.445
  C      -43.419      -5.567     -29.700
  O      -42.144      -5.354     -30.301
  C      -43.715      -4.614     -28.544
  N      -39.477      -4.735     -25.801
  C      -39.748      -4.096     -26.994
  N      -38.735      -3.404     -27.558
  N      -40.913      -4.133     -27.586
  C      -41.839      -4.850     -26.905
  C      -41.693      -5.529     -25.719
  C      -40.394      -5.491     -25.079
  O      -40.091      -6.047     -24.030
  N      -42.858      -6.160     -25.361
  C      -43.704      -5.865     -26.331
  N      -43.130      -5.082     -27.297
  O      -50.239      -6.262     -27.986
  O      -48.659      -7.925     -29.128
  H      -42.049      -4.386     -30.438
  H      -49.481      -8.449     -29.147
  H      -38.559      -4.681     -25.393
  H      -44.733      -6.196     -26.386
  H      -43.321      -3.606     -28.722
  H      -43.473      -6.613     -29.371
  H      -37.817      -3.317     -27.151
  H      -44.793      -6.122     -31.297
  H      -38.918      -2.907     -28.422
  H      -46.259      -4.023     -30.087
  H      -47.025      -6.443     -30.467
  H      -46.259      -6.833     -28.907
  P      -43.728      -4.353     -32.947
  C      -41.749      -2.723     -32.714
  O      -42.948      -3.032     -33.414
  O      -44.750      -4.863     -33.908
  O      -42.535      -5.411     -32.760
  H      -42.473      -5.961     -33.564
  H      -41.324      -1.826     -33.114
  H      -41.053      -3.528     -32.825
  H      -41.968      -2.582     -31.676

 6  7  8  9  10  11  12  13  14  15  26  29  33  34 0
 6-311+G(2d,p)
 ****
 36  38  39  40  41 0
 6-311+G(2d,p)
 ****
 1  2  3  4  5  16  17  18  19  20  21  22  23  24  25 0
 3-21G
 ****
 27  28  30  31  32  35  37  42  43  44  45  46  47 0
 3-21G
 ****
 48  49 0
 3-21G
 ****


