%nproc=1
%NoSave
%Mem=1900MB
#P OB98/GEN NMR

erre ene a

0 1
  C      -63.852     162.319      99.799
  O      -63.034     163.493      99.831
  P      -62.211     163.854      98.501
  C      -63.942     165.014      96.914
  O      -62.924     165.154      97.894
  C      -64.210     166.359      96.241
  O      -65.133     166.203      95.136
  C      -64.844     167.396      97.155
  O      -63.900     167.925      98.072
  C      -65.375     168.394      96.134
  O      -64.320     169.257      95.683
  C      -65.825     167.466      94.985
  N      -67.269     167.280      94.932
  C      -67.938     168.015      93.958
  O      -67.370     168.797      93.197
  N      -69.293     167.837      93.901
  C      -70.030     167.036      94.724
  O      -71.243     166.908      94.619
  C      -69.275     166.324      95.765
  C      -67.949     166.475      95.822
  O      -62.656     162.665      97.531
  O      -60.742     163.965      98.737
  H      -63.579     162.390      97.665
  H      -64.650     169.695      94.872
  H      -69.795     168.351      93.194
  H      -69.830     165.699      96.453
  H      -67.375     165.959      96.585
  H      -65.500     167.875      94.021
  H      -66.166     169.030      96.542
  H      -65.681     166.947      97.704
  H      -63.258     166.736      95.844
  H      -64.864     164.657      97.382
  H      -63.630     164.262      96.183
  P      -64.485     168.589      99.414
  C      -65.885     166.730     100.603
  O      -64.651     167.399     100.473
  O      -65.985     168.923      98.966
  O      -63.705     169.771      99.887
  H      -66.404     168.198      98.474
  H      -65.712     165.766     101.089
  H      -66.349     166.553      99.630
  H      -66.559     167.322     101.227
  H      -64.340     162.199     100.744
  H      -63.240     161.463      99.602
  H      -64.587     162.417      99.028

 3  4  5  6  7  8  9  10  11  12  13  24  28  29  30  31  32 0
 6-311+G(2d,p)
 ****
 33  34 0
 6-311+G(2d,p)
 ****
 1  2  14  15  16  17  18  19  20  21  22  23  25  26  27 0
 3-21G
 ****
 35  36  37  38  39  40  41  42  43  44  45 0
 3-21G
 ****


