%nproc=1
%NoSave
%Mem=1900MB
#P OB98/GEN NMR

erre ene a

0 1
  C       67.653      48.776      29.899
  O       68.346      48.704      31.146
  P       68.296      47.345      31.992
  C       66.864      48.197      33.960
  O       66.940      47.315      32.851
  C       65.463      48.169      34.591
  O       65.514      48.746      35.924
  C       64.424      48.953      33.777
  O       63.240      48.202      33.508
  C       64.233      50.228      34.579
  O       62.984      50.855      34.335
  C       64.505      49.768      36.016
  N       64.917      50.878      36.879
  C       64.162      51.092      38.024
  O       63.146      50.451      38.290
  N       64.576      52.115      38.835
  C       65.601      52.976      38.573
  O       65.902      53.907      39.307
  C       66.324      52.742      37.314
  C       65.954      51.720      36.538
  O       69.534      47.009      32.754
  O       68.009      46.235      30.866
  H       62.865      50.942      33.364
  H       68.529      45.438      31.090
  H       64.048      52.271      39.679
  H       67.128      53.418      37.063
  H       66.460      51.532      35.601
  H       63.608      49.326      36.462
  H       65.015      50.940      34.285
  H       64.806      49.206      32.782
  H       65.167      47.119      34.679
  H       67.083      49.213      33.631
  H       67.641      47.936      34.686
  P       62.853      47.602      32.078
  C       61.152      49.398      31.307
  O       62.424      48.812      31.123
  O       61.908      46.448      32.091
  O       64.270      47.146      31.482
  H       64.164      46.296      31.017
  H       60.872      49.920      30.389
  H       61.200      50.124      32.124
  H       60.394      48.643      31.530
  H       67.790      49.747      29.470
  H       66.610      48.602      30.060
  H       68.040      48.034      29.233

 3  4  5  6  7  8  9  10  11  12  13  23  28  29  30  31  32 0
 6-311+G(2d,p)
 ****
 33  34 0
 6-311+G(2d,p)
 ****
 1  2  14  15  16  17  18  19  20  21  22  24  25  26  27 0
 3-21G
 ****
 35  36  37  38  39  40  41  42  43  44  45 0
 3-21G
 ****


