%nproc=1
%NoSave
%Mem=1900MB
#P OB98/GEN NMR

erre ene a

0 1
  C       22.799     -85.921      -1.307
  O       21.437     -86.182      -1.013
  P       20.866     -85.664       0.395
  C       22.373     -87.405       1.596
  O       21.950     -86.052       1.513
  C       23.068     -87.679       2.931
  O       24.366     -87.019       2.930
  C       22.299     -87.179       4.166
  O       22.556     -88.114       5.219
  C       22.973     -85.844       4.439
  O       22.733     -85.333       5.739
  C       24.423     -86.200       4.121
  N       27.103     -82.494       6.404
  C       26.434     -83.559       6.902
  N       25.750     -84.509       6.231
  C       25.807     -84.287       4.906
  C       26.431     -83.236       4.255
  C       27.106     -82.308       5.064
  N       27.779     -81.215       4.553
  N       26.250     -83.327       2.890
  C       25.526     -84.414       2.720
  N       25.252     -85.038       3.905
  O       19.660     -86.672       0.689
  O       20.418     -84.235       0.408
  H       21.774     -85.337       5.927
  H       18.902     -86.210       1.094
  H       26.452     -83.661       7.983
  H       25.165     -84.782       1.767
  H       24.882     -86.800       4.917
  H       22.592     -85.102       3.727
  H       21.220     -87.109       4.004
  H       23.251     -88.758       3.011
  H       23.084     -87.614       0.790
  H       28.057     -80.508       5.219
  H       27.602     -80.977       3.585
  H       21.508     -88.065       1.460
  P       21.380     -88.455       6.257
  C       22.613     -87.064       8.033
  O       21.417     -87.229       7.296
  O       22.062     -89.624       7.116
  O       20.063     -88.808       5.658
  H       22.947     -89.367       7.431
  H       22.537     -86.146       8.622
  H       23.469     -86.983       7.357
  H       22.751     -87.910       8.714
  H       23.039     -86.320      -2.270
  H       23.418     -86.381      -0.566
  H       22.968     -84.864      -1.307

 3  4  5  6  7  8  9  10  11  12  22  25  29  30  31  32 0
 6-311+G(2d,p)
 ****
 33  36  37 0
 6-311+G(2d,p)
 ****
 1  2  13  14  15  16  17  18  19  20  21  23  24  26 0
 3-21G
 ****
 27  28  34  35  38  39  40  41  42  43  44  45  46  47  48 0
 3-21G
 ****


