%nproc=1
%NoSave
%Mem=1900MB
#P OB98/GEN NMR

erre ene a

0 1
  C     -119.593     108.258      94.843
  O     -120.330     108.439      96.035
  H     -120.186     107.657      94.149
  H     -118.668     107.720      95.068
  H     -119.363     109.218      94.374
  P     -119.842     109.598      97.031
  C     -119.580     107.999      99.060
  O     -118.940     108.888      98.156
  C     -118.548     107.319      99.958
  O     -117.500     108.284     100.278
  C     -119.120     106.795     101.288
  O     -118.459     105.567     101.623
  C     -118.684     107.856     102.282
  O     -118.627     107.359     103.614
  C     -117.325     108.243     101.706
  N     -114.791     110.305     105.516
  C     -114.928     108.983     105.139
  N     -114.352     108.055     105.932
  N     -115.581     108.602     104.074
  C     -116.093     109.631     103.359
  C     -116.032     110.976     103.625
  C     -115.322     111.389     104.817
  O     -115.183     112.541     105.215
  N     -116.733     111.696     102.688
  C     -117.231     110.784     101.870
  N     -116.872     109.516     102.237
  O     -121.189     109.977      97.812
  O     -119.226     110.787      96.374
  H     -119.537     107.140     103.899
  H     -121.619     110.738      97.379
  H     -114.293     110.546     106.356
  H     -117.867     110.986     101.020
  H     -116.545     107.505     101.936
  H     -119.381     108.703     102.255
  H     -113.806     108.275     106.753
  H     -120.203     106.639     101.276
  H     -114.409     107.085     105.647
  H     -118.073     106.505      99.396
  H     -120.118     107.234      98.490
  H     -120.302     108.558      99.664
  P     -119.128     104.194     101.141
  C     -120.692     103.922     103.204
  O     -120.588     104.078     101.795
  O     -118.285     103.084     101.929
  O     -119.071     103.978      99.664
  H     -118.195     102.284     101.376
  H     -121.724     103.860     103.481
  H     -120.242     104.762     103.690
  H     -120.188     103.026     103.502

 6  7  8  9  10  11  12  13  14  15  26  29  33  34 0
 6-311+G(2d,p)
 ****
 36  38  39  40  41 0
 6-311+G(2d,p)
 ****
 1  2  3  4  5  16  17  18  19  20  21  22  23  24  25 0
 3-21G
 ****
 27  28  30  31  32  35  37  42  43  44  45  46  47 0
 3-21G
 ****
 48  49 0
 3-21G
 ****


