%nproc=1
%NoSave
%Mem=1900MB
#P OB98/GEN NMR

erre ene a

0 1
  C      444.431    -192.817     153.690
  O      444.595    -193.401     152.393
  P      443.287    -193.921     151.624
  C      441.844    -193.174     149.586
  O      442.949    -192.899     150.437
  C      441.577    -191.996     148.644
  O      441.282    -190.784     149.365
  C      442.762    -191.653     147.744
  O      442.814    -192.506     146.611
  C      442.410    -190.236     147.329
  O      441.431    -190.270     146.264
  C      441.786    -189.661     148.606
  N      443.635    -185.008     149.699
  C      442.724    -185.432     148.792
  N      442.295    -186.681     148.548
  C      442.904    -187.560     149.370
  C      443.855    -187.281     150.346
  C      444.220    -185.934     150.497
  N      445.147    -185.514     151.431
  N      444.257    -188.434     150.983
  C      443.545    -189.391     150.413
  N      442.722    -188.917     149.429
  O      442.119    -193.645     152.686
  O      443.349    -195.357     151.237
  H      441.824    -190.786     145.535
  H      441.437    -194.340     152.613
  H      442.274    -184.645     148.178
  H      443.592    -190.445     150.685
  H      440.935    -188.997     148.394
  H      443.274    -189.682     146.947
  H      443.704    -191.658     148.315
  H      440.705    -192.249     148.023
  H      440.955    -193.388     150.184
  H      445.338    -184.525     151.491
  H      445.568    -186.198     152.039
  H      442.055    -194.094     149.017
  P      444.181    -193.320     146.364
  C      445.143    -195.215     147.872
  O      444.019    -194.694     147.186
  O      445.250    -192.482     147.215
  O      444.567    -193.454     144.934
  H      446.138    -192.563     146.801
  H      444.797    -195.946     148.601
  H      445.689    -194.421     148.395
  H      445.808    -195.713     147.157
  H      445.386    -192.521     154.071
  H      443.990    -193.534     154.351
  H      443.795    -191.960     153.617

 3  4  5  6  7  8  9  10  11  12  22  25  29  30  31  32 0
 6-311+G(2d,p)
 ****
 33  36  37 0
 6-311+G(2d,p)
 ****
 1  2  13  14  15  16  17  18  19  20  21  23  24  26 0
 3-21G
 ****
 27  28  34  35  38  39  40  41  42  43  44  45  46  47  48 0
 3-21G
 ****


