%nproc=1
%NoSave
%Mem=1900MB
#P OB98/GEN NMR

erre ene a

0 1
  C     -537.023     545.874     -43.132
  O     -535.811     545.164     -42.983
  H     -537.547     545.883     -42.179
  H     -537.659     545.393     -43.886
  H     -536.828     546.915     -43.434
  P     -534.857     545.012     -44.261
  C     -536.229     543.016     -45.159
  O     -534.959     543.477     -44.711
  C     -536.133     541.555     -45.595
  O     -535.399     541.437     -46.821
  C     -535.423     540.659     -44.565
  O     -536.316     540.291     -43.524
  C     -535.021     539.483     -45.454
  O     -536.175     538.657     -45.705
  C     -534.597     540.206     -46.748
  N     -529.944     538.674     -48.043
  C     -531.147     537.988     -48.083
  N     -531.089     536.699     -48.481
  N     -532.291     538.509     -47.737
  C     -532.184     539.792     -47.292
  C     -531.041     540.570     -47.196
  C     -529.787     539.992     -47.650
  O     -528.701     540.570     -47.646
  N     -531.317     541.789     -46.643
  C     -532.615     541.779     -46.443
  N     -533.198     540.576     -46.796
  O     -533.438     545.508     -44.099
  O     -535.629     545.794     -45.425
  H     -536.722     539.125     -46.361
  H     -535.344     546.716     -45.480
  H     -529.094     538.205     -48.310
  H     -533.195     542.600     -46.037
  H     -534.817     539.623     -47.647
  H     -534.256     538.856     -45.014
  H     -530.215     536.180     -48.478
  H     -534.512     541.125     -44.181
  H     -531.947     536.164     -48.458
  H     -537.149     541.186     -45.777
  H     -536.517     543.635     -46.014
  H     -536.974     543.121     -44.365
  P     -535.940     540.540     -41.977
  C     -533.896     538.974     -41.803
  O     -535.260     539.174     -41.495
  O     -537.054     541.025     -41.132
  O     -534.686     541.548     -42.036
  H     -534.949     542.501     -42.054
  H     -533.580     538.026     -41.422
  H     -533.312     539.751     -41.356
  H     -533.763     538.994     -42.865

 6  7  8  9  10  11  12  13  14  15  26  29  33  34 0
 6-311+G(2d,p)
 ****
 36  38  39  40  41 0
 6-311+G(2d,p)
 ****
 1  2  3  4  5  16  17  18  19  20  21  22  23  24  25 0
 3-21G
 ****
 27  28  30  31  32  35  37  42  43  44  45  46  47 0
 3-21G
 ****
 48  49 0
 3-21G
 ****


