%nproc=1
%NoSave
%Mem=1900MB
#P OB98/GEN NMR

erre ene a

0 1
  C      315.413    -245.677    -381.864
  O      314.322    -245.344    -380.998
  P      313.350    -246.527    -380.521
  C      314.493    -248.053    -378.749
  O      313.702    -246.901    -379.001
  C      314.257    -248.568    -377.330
  O      314.968    -249.793    -377.075
  C      314.721    -247.602    -376.245
  O      313.757    -246.588    -376.000
  C      314.825    -248.533    -375.047
  O      313.515    -248.755    -374.484
  C      315.352    -249.823    -375.681
  N      319.356    -250.191    -372.505
  C      318.035    -250.016    -372.274
  N      317.035    -249.910    -373.171
  C      317.505    -250.016    -374.425
  C      318.824    -250.193    -374.814
  C      319.779    -250.283    -373.785
  N      321.121    -250.461    -374.025
  N      318.926    -250.246    -376.189
  C      317.689    -250.120    -376.622
  N      316.796    -249.967    -375.595
  O      313.888    -247.790    -381.344
  O      311.905    -246.273    -380.798
  H      312.974    -249.172    -375.175
  H      313.147    -248.375    -381.576
  H      317.742    -249.954    -371.231
  H      317.393    -250.131    -377.662
  H      314.910    -250.723    -375.235
  H      315.447    -248.120    -374.246
  H      315.708    -247.187    -376.485
  H      313.181    -248.759    -377.210
  H      315.554    -247.822    -378.895
  H      321.743    -250.546    -373.239
  H      321.439    -250.555    -374.983
  H      314.245    -248.824    -379.489
  P      314.301    -245.094    -375.781
  C      314.403    -244.146    -378.198
  O      313.686    -244.230    -376.979
  O      315.856    -245.223    -376.147
  O      314.092    -244.559    -374.406
  H      316.375    -244.577    -375.632
  H      313.722    -243.792    -378.978
  H      314.793    -245.125    -378.492
  H      315.225    -243.435    -378.096
  H      315.968    -244.792    -382.095
  H      315.033    -246.105    -382.768
  H      316.053    -246.382    -381.376

 3  4  5  6  7  8  9  10  11  12  22  25  29  30  31  32 0
 6-311+G(2d,p)
 ****
 33  36  37 0
 6-311+G(2d,p)
 ****
 1  2  13  14  15  16  17  18  19  20  21  23  24  26 0
 3-21G
 ****
 27  28  34  35  38  39  40  41  42  43  44  45  46  47  48 0
 3-21G
 ****


