%nproc=1
%NoSave
%Mem=1900MB
#P OB98/GEN NMR

erre ene a

0 1
  C       77.876     433.269     129.719
  O       79.222     433.003     129.315
  P       80.041     434.146     128.542
  C       79.560     434.381     126.013
  O       79.134     434.703     127.339
  C       78.890     435.317     124.977
  O       79.321     436.699     125.178
  C       79.231     434.929     123.536
  O       78.115     435.225     122.659
  C       80.350     435.890     123.190
  O       80.500     436.035     121.773
  C       79.890     437.151     123.928
  N       81.445     442.011     123.397
  C       80.272     441.403     123.117
  N       79.920     440.116     123.322
  C       80.935     439.433     123.861
  C       82.201     439.902     124.196
  C       82.437     441.260     123.943
  N       83.660     441.862     124.192
  N       82.970     438.892     124.738
  C       82.219     437.826     124.669
  N       80.969     438.084     124.166
  O       81.440     433.803     128.160
  O       80.015     435.369     129.583
  H       79.602     436.228     121.406
  H       80.904     435.798     129.595
  H       79.514     442.049     122.686
  H       82.533     436.811     124.947
  H       79.100     437.675     123.379
  H       81.308     435.502     123.595
  H       79.518     433.879     123.398
  H       77.807     435.304     125.151
  H       79.320     433.345     125.793
  H       83.784     442.814     123.869
  H       84.445     441.293     124.474
  H       80.646     434.456     125.960
  P       77.522     433.959     121.860
  C       78.933     434.233     119.659
  O       78.655     433.492     120.838
  O       76.171     434.224     121.254
  O       77.487     432.820     122.993
  H       78.335     432.720     123.476
  H       79.836     433.815     119.193
  H       79.111     435.281     119.918
  H       78.085     434.155     118.974
  H       77.477     432.410     130.218
  H       77.282     433.489     128.857
  H       77.862     434.106     130.385

 3  4  5  6  7  8  9  10  11  12  22  25  29  30  31  32 0
 6-311+G(2d,p)
 ****
 33  36  37 0
 6-311+G(2d,p)
 ****
 1  2  13  14  15  16  17  18  19  20  21  23  24  26 0
 3-21G
 ****
 27  28  34  35  38  39  40  41  42  43  44  45  46  47  48 0
 3-21G
 ****


