%nproc=1
%NoSave
%Mem=1900MB
#P OB98/GEN NMR

erre ene a

0 1
  C     -899.160     137.083     433.707
  O     -899.460     136.456     432.476
  H     -900.000     137.711     433.993
  H     -898.270     137.721     433.591
  H     -898.990     136.346     434.496
  P     -898.530     135.262     431.962
  C     -896.490     136.666     431.247
  O     -897.010     135.739     432.189
  C     -895.010     136.963     431.556
  O     -894.290     135.684     431.629
  C     -894.310     137.845     430.495
  O     -893.350     138.690     431.158
  C     -893.620     136.801     429.648
  O     -892.570     137.336     428.895
  C     -893.180     135.804     430.731
  N     -892.790     134.519     430.142
  C     -891.560     134.471     429.480
  O     -890.810     135.443     429.355
  N     -891.260     133.271     428.903
  C     -892.080     132.177     428.810
  O     -891.770     131.175     428.197
  C     -893.380     132.323     429.477
  C     -893.670     133.450     430.107
  O     -898.820     134.743     430.584
  O     -898.690     134.116     433.082
  H     -892.860     138.155     428.434
  H     -898.430     133.246     432.721
  H     -890.360     133.213     428.417
  H     -894.060     131.476     429.432
  H     -894.620     133.594     430.612
  H     -892.320     136.201     431.305
  H     -894.330     136.337     428.952
  H     -895.020     138.457     429.930
  H     -894.950     137.418     432.552
  H     -897.080     137.597     431.302
  H     -896.580     136.244     430.233
  P     -893.670     140.212     431.526
  C     -891.820     141.547     430.331
  O     -893.220     141.195     430.327
  O     -893.190     140.633     432.875
  O     -895.280     140.292     431.478
  H     -895.600     140.777     432.264
  H     -891.613     142.197     429.507
  H     -891.229     140.660     430.243
  H     -891.580     142.045     431.247

 6  7  8  9  10  11  12  13  14  15  16  26  31  32  33  34  35 0
 6-311+G(2d,p)
 ****
 36  37 0
 6-311+G(2d,p)
 ****
 1  2  3  4  5  17  18  19  20  21  22  23  24  25 0
 3-21G
 ****
 27  28  29  30  38  39  40  41  42  43  44  45 0
 3-21G
 ****


