%nproc=1
%NoSave
%Mem=1900MB
#P OB98/GEN NMR

erre ene a

0 1
  C       61.000     247.802    -203.484
  O       60.590     247.273    -202.217
  P       59.023     247.252    -201.878
  C       57.677     245.803    -203.573
  O       58.414     245.850    -202.359
  C       56.867     244.507    -203.666
  O       57.718     243.345    -203.741
  C       55.961     244.264    -202.468
  O       54.747     244.992    -202.579
  C       55.703     242.773    -202.591
  O       54.682     242.539    -203.588
  C       57.054     242.246    -203.081
  N       58.071     238.258    -200.030
  C       57.122     238.457    -200.972
  N       56.901     239.546    -201.730
  C       57.801     240.507    -201.448
  C       58.829     240.454    -200.515
  C       58.949     239.260    -199.782
  N       59.923     239.065    -198.827
  N       59.543     241.631    -200.499
  C       58.968     242.379    -201.424
  N       57.909     241.750    -202.015
  O       58.415     248.294    -202.932
  O       58.706     247.640    -200.477
  H       54.575     241.571    -203.664
  H       57.664     248.768    -202.531
  H       56.445     237.615    -201.139
  H       59.287     243.381    -201.697
  H       56.945     241.436    -203.817
  H       55.342     242.327    -201.659
  H       56.487     244.480    -201.524
  H       56.262     244.550    -204.585
  H       58.354     245.887    -204.426
  H       59.957     238.170    -198.360
  H       60.591     239.801    -198.658
  H       57.016     246.681    -203.624
  P       54.449     246.108    -201.461
  C       55.138     248.604    -201.185
  O       55.112     247.461    -202.022
  O       55.411     245.670    -200.258
  O       53.024     246.198    -201.047
  H       55.015     245.941    -199.400
  H       55.868     249.309    -201.577
  H       55.420     248.334    -200.159
  H       54.150     249.079    -201.180
  H       62.066     247.750    -203.564
  H       60.686     248.822    -203.563
  H       60.554     247.230    -204.271

 3  4  5  6  7  8  9  10  11  12  22  25  29  30  31  32 0
 6-311+G(2d,p)
 ****
 33  36  37 0
 6-311+G(2d,p)
 ****
 1  2  13  14  15  16  17  18  19  20  21  23  24  26 0
 3-21G
 ****
 27  28  34  35  38  39  40  41  42  43  44  45  46  47  48 0
 3-21G
 ****


