%nproc=1
%NoSave
%Mem=1900MB
#P OB98/GEN NMR

erre ene a

0 1
  C     -895.850    -527.503    -893.300
  O     -897.090    -527.226    -892.670
  H     -895.350    -528.324    -892.760
  H     -895.200    -526.623    -893.270
  H     -896.020    -527.814    -894.340
  P     -897.910    -525.973    -893.250
  C     -897.190    -523.536    -893.860
  O     -896.790    -524.830    -893.430
  C     -896.160    -522.493    -893.420
  O     -894.820    -522.943    -893.750
  C     -896.300    -521.118    -894.060
  O     -897.360    -520.349    -893.510
  C     -894.940    -520.544    -893.760
  O     -894.880    -520.158    -892.370
  C     -894.020    -521.756    -894.040
  N     -893.550    -521.796    -895.430
  C     -892.160    -521.648    -895.620
  O     -891.420    -521.496    -894.660
  N     -891.680    -521.650    -896.910
  C     -892.480    -521.819    -897.910
  N     -891.940    -521.797    -899.160
  C     -893.940    -521.987    -897.750
  C     -894.400    -521.971    -896.490
  O     -898.740    -525.453    -891.980
  O     -898.730    -526.232    -894.480
  H     -893.960    -519.838    -892.220
  H     -899.180    -524.596    -892.200
  H     -894.570    -522.105    -898.620
  H     -895.460    -522.099    -896.320
  H     -893.160    -521.759    -893.380
  H     -894.720    -519.654    -894.340
  H     -896.420    -521.229    -895.150
  H     -896.210    -522.416    -892.310
  H     -890.950    -521.618    -899.240
  H     -898.150    -523.307    -893.400
  H     -892.510    -521.775    -900.000
  H     -897.280    -523.507    -894.940
  P     -897.960    -519.170    -894.420
  C     -897.350    -516.682    -894.890
  O     -897.010    -517.893    -894.210
  O     -899.320    -518.783    -893.660
  O     -898.200    -519.550    -895.860
  H     -900.000    -518.510    -894.310
  H     -896.630    -515.926    -894.654
  H     -898.321    -516.359    -894.579
  H     -897.353    -516.855    -895.946

 6  7  8  9  10  11  12  13  14  15  16  26  30  31  32  33  35 0
 6-311+G(2d,p)
 ****
 37  38 0
 6-311+G(2d,p)
 ****
 1  2  3  4  5  17  18  19  20  21  22  23  24  25 0
 3-21G
 ****
 27  28  29  34  36  39  40  41  42  43  44  45  46 0
 3-21G
 ****


