%nproc=1
%NoSave
%Mem=1900MB
#P OB98/GEN NMR

erre ene a

0 1
  C     -177.736    -102.545    1188.077
  O     -178.603    -101.622    1188.711
  H     -178.327    -103.235    1187.475
  H     -177.172    -103.111    1188.820
  H     -177.040    -102.008    1187.416
  P     -177.927    -100.586    1189.734
  C     -177.200     -98.868    1187.912
  O     -176.800     -99.864    1188.839
  C     -176.518     -97.538    1188.251
  O     -175.083     -97.709    1188.298
  C     -176.764     -96.414    1187.230
  O     -178.030     -95.820    1187.355
  C     -175.651     -95.465    1187.618
  O     -175.995     -94.793    1188.844
  C     -174.485     -96.458    1187.837
  N     -173.684     -96.688    1186.630
  C     -172.452     -96.021    1186.555
  O     -172.088     -95.279    1187.471
  N     -171.692     -96.183    1185.429
  C     -172.083     -96.950    1184.468
  N     -171.274     -97.065    1183.378
  C     -173.367     -97.677    1184.506
  C     -174.102     -97.509    1185.603
  O     -177.063    -101.526    1190.695
  O     -178.856     -99.658    1190.444
  H     -176.757     -94.231    1188.654
  H     -176.479    -100.976    1191.279
  H     -173.670     -98.310    1183.681
  H     -175.049     -98.016    1185.709
  H     -173.803     -96.107    1188.642
  H     -175.454     -94.699    1186.870
  H     -176.590     -96.764    1186.204
  H     -176.847     -97.233    1189.251
  H     -170.434     -96.508    1183.346
  H     -178.291     -98.752    1187.972
  H     -171.580     -97.525    1182.529
  H     -176.929     -99.155    1186.899
  P     -178.755     -95.326    1186.002
  C     -179.651     -97.651    1185.227
  O     -178.752     -96.571    1184.987
  O     -177.674     -94.329    1185.364
  O     -180.081     -94.667    1186.198
  H     -178.110     -93.591    1184.893
  H     -179.526     -98.395    1184.468
  H     -180.657     -97.288    1185.209
  H     -179.444     -98.081    1186.185

 6  7  8  9  10  11  12  13  14  15  16  26  30  31  32  33  35 0
 6-311+G(2d,p)
 ****
 37  38 0
 6-311+G(2d,p)
 ****
 1  2  3  4  5  17  18  19  20  21  22  23  24  25 0
 3-21G
 ****
 27  28  29  34  36  39  40  41  42  43  44  45  46 0
 3-21G
 ****


