%nproc=1
%NoSave
%Mem=1900MB
#P OB98/GEN NMR

erre ene a

0 1
  C      165.490    -509.898    -362.134
  O      166.785    -509.814    -362.710
  P      167.162    -508.659    -363.763
  C      167.405    -508.713    -366.340
  O      166.755    -509.247    -365.200
  C      166.494    -508.806    -367.568
  O      166.350    -510.200    -367.935
  C      165.080    -508.236    -367.350
  O      164.667    -507.653    -368.579
  C      164.260    -509.477    -367.044
  O      162.875    -509.291    -367.287
  C      164.939    -510.505    -367.959
  N      164.691    -511.878    -367.547
  C      163.501    -512.480    -367.965
  O      162.683    -511.851    -368.648
  N      163.258    -513.778    -367.606
  C      164.091    -514.405    -366.828
  N      163.833    -515.713    -366.547
  C      165.298    -513.770    -366.270
  C      165.549    -512.532    -366.687
  O      168.562    -508.156    -363.668
  O      166.043    -507.536    -363.534
  H      162.618    -508.414    -366.943
  H      166.272    -506.912    -362.804
  H      165.943    -514.320    -365.601
  H      166.420    -511.999    -366.349
  H      164.605    -510.360    -368.996
  H      164.385    -509.748    -365.984
  H      165.046    -507.476    -366.553
  H      166.990    -508.288    -368.400
  H      163.092    -516.154    -367.086
  H      168.307    -509.299    -366.528
  H      164.570    -516.334    -366.236
  H      167.705    -507.676    -366.147
  P      163.834    -506.270    -368.527
  C      161.710    -505.363    -369.712
  O      162.450    -506.494    -369.293
  O      164.652    -505.361    -369.576
  O      163.778    -505.583    -367.201
  H      164.519    -504.423    -369.341
  H      160.806    -505.707    -370.220
  H      162.294    -504.757    -370.414
  H      161.422    -504.755    -368.846
  H      165.451    -510.732    -361.465
  H      164.763    -510.027    -362.908
  H      165.281    -508.998    -361.594

 3  4  5  6  7  8  9  10  11  12  13  23  27  28  29  30  32 0
 6-311+G(2d,p)
 ****
 34  35 0
 6-311+G(2d,p)
 ****
 1  2  14  15  16  17  18  19  20  21  22  24  25  26 0
 3-21G
 ****
 31  33  36  37  38  39  40  41  42  43  44  45  46 0
 3-21G
 ****


