%nproc=1
%NoSave
%Mem=1900MB
#P OB98/GEN NMR

erre ene a

0 1
  C     -265.131     406.650    -126.508
  O     -266.352     407.370    -126.444
  P     -267.246     407.194    -125.124
  C     -267.200     409.609    -124.155
  O     -266.700     408.276    -124.075
  C     -266.603     410.467    -123.045
  O     -265.233     410.784    -123.348
  C     -267.303     411.804    -122.856
  O     -268.516     411.645    -122.153
  C     -266.241     412.590    -122.092
  O     -266.349     412.356    -120.676
  C     -264.922     412.012    -122.650
  N     -264.220     412.946    -123.521
  C     -263.135     413.616    -122.939
  O     -262.837     413.409    -121.757
  N     -262.444     414.528    -123.697
  C     -262.806     414.751    -124.921
  N     -262.082     415.664    -125.626
  C     -263.960     414.086    -125.560
  C     -264.618     413.209    -124.809
  O     -266.737     405.802    -124.524
  O     -268.722     407.206    -125.363
  H     -266.019     411.448    -120.535
  H     -267.436     405.376    -123.987
  H     -264.222     414.315    -126.585
  H     -265.476     412.674    -125.193
  H     -264.244     411.740    -121.830
  H     -266.342     413.668    -122.242
  H     -267.484     412.286    -123.830
  H     -266.623     409.886    -122.109
  H     -261.300     416.110    -125.157
  H     -268.284     409.590    -124.040
  H     -262.271     415.892    -126.597
  H     -266.957     410.021    -125.139
  P     -269.861     412.137    -122.862
  C     -270.970     409.899    -122.282
  O     -270.605     410.791    -123.315
  O     -269.318     412.709    -124.258
  O     -270.689     413.142    -122.128
  H     -270.043     413.137    -124.749
  H     -271.602     409.111    -122.705
  H     -271.528     410.415    -121.503
  H     -270.071     409.437    -121.851
  H     -264.641     406.860    -127.436
  H     -265.331     405.601    -126.440
  H     -264.499     406.946    -125.697

 3  4  5  6  7  8  9  10  11  12  13  21  23  27  28  29  30  32 0
 6-311+G(2d,p)
 ****
 34  35 0
 6-311+G(2d,p)
 ****
 1  2  14  15  16  17  18  19  20  22  24  25  26 0
 3-21G
 ****
 31  33  36  37  38  39  40  41  42  43  44  45  46 0
 3-21G
 ****


