%nproc=1
%NoSave
%Mem=1900MB
#P OB98/GEN NMR

erre ene a

0 1
  C      425.251     621.464    -195.414
  O      426.665     621.439    -195.326
  P      427.318     620.762    -194.013
  C      428.809     622.790    -193.405
  O      428.762     621.437    -193.826
  C      430.106     623.086    -192.624
  O      430.032     622.416    -191.338
  C      431.374     622.611    -193.332
  O      432.405     623.571    -193.073
  C      431.718     621.316    -192.617
  O      433.111     621.014    -192.726
  C      431.224     621.615    -191.200
  N      430.967     620.412    -190.429
  C      432.054     619.846    -189.742
  O      433.182     620.325    -189.867
  N      431.845     618.721    -188.974
  C      430.682     618.145    -188.994
  N      430.522     617.036    -188.210
  C      429.541     618.641    -189.797
  C      429.752     619.767    -190.467
  O      427.657     619.283    -194.519
  O      426.428     620.765    -192.815
  H      433.372     621.060    -193.673
  H      427.580     618.634    -193.791
  H      428.603     618.097    -189.797
  H      428.959     620.219    -191.077
  H      431.971     622.230    -190.648
  H      431.150     620.488    -193.050
  H      431.254     622.499    -194.419
  H      430.149     624.159    -192.431
  H      431.323     616.711    -187.685
  H      427.971     622.995    -192.734
  H      429.651     616.527    -188.161
  H      428.729     623.457    -194.272
  P      433.008     624.381    -194.319
  C      435.485     623.765    -194.028
  O      434.502     624.769    -193.883
  O      432.257     625.794    -194.180
  O      432.827     623.812    -195.686
  H      432.491     626.369    -194.936
  H      436.471     624.199    -193.832
  H      435.477     623.358    -195.049
  H      435.308     622.953    -193.308
  H      424.959     621.938    -196.328
  H      424.852     622.011    -194.585
  H      424.875     620.463    -195.395

 3  4  5  6  7  8  9  10  11  12  13  21  23  27  28  29  30  32 0
 6-311+G(2d,p)
 ****
 34  35 0
 6-311+G(2d,p)
 ****
 1  2  14  15  16  17  18  19  20  22  24  25  26 0
 3-21G
 ****
 31  33  36  37  38  39  40  41  42  43  44  45  46 0
 3-21G
 ****


