%nproc=1
%NoSave
%Mem=1900MB
#P OB98/GEN NMR

erre ene a

0 1
  C     -121.701     -83.769    -282.991
  O     -120.882     -83.353    -281.911
  P     -119.521     -84.162    -281.648
  C     -119.045     -85.549    -279.492
  O     -119.888     -85.343    -280.616
  C     -119.592     -84.794    -278.278
  O     -120.989     -85.110    -278.066
  C     -118.897     -85.142    -276.966
  O     -117.675     -84.441    -276.803
  C     -119.923     -84.652    -275.952
  O     -119.821     -83.222    -275.795
  C     -121.253     -85.017    -276.639
  N     -124.474     -87.146    -273.371
  C     -124.316     -85.815    -273.708
  N     -125.074     -84.924    -273.038
  N     -123.478     -85.395    -274.629
  C     -122.767     -86.402    -275.205
  C     -122.845     -87.752    -274.955
  C     -123.766     -88.200    -273.926
  O     -123.913     -89.357    -273.538
  N     -121.982     -88.459    -275.743
  C     -121.380     -87.543    -276.483
  N     -121.797     -86.277    -276.161
  O     -118.662     -83.149    -280.749
  O     -118.792     -84.576    -282.881
  H     -120.611     -82.940    -275.294
  H     -117.722     -83.418    -280.750
  H     -125.129     -87.409    -272.647
  H     -120.637     -87.747    -277.246
  H     -122.009     -84.235    -276.506
  H     -119.788     -85.092    -274.962
  H     -125.693     -85.167    -272.285
  H     -118.765     -86.226    -276.854
  H     -124.935     -83.934    -273.226
  H     -119.519     -83.716    -278.486
  H     -118.045     -85.185    -279.719
  H     -118.990     -86.620    -279.277
  P     -116.735     -84.896    -275.579
  C     -116.508     -83.141    -273.674
  O     -117.312     -84.128    -274.300
  O     -115.351     -84.151    -275.887
  O     -116.576     -86.379    -275.450
  H     -114.605     -84.643    -275.492
  H     -117.138     -82.546    -273.002
  H     -116.063     -82.472    -274.416
  H     -115.715     -83.622    -273.083
  H     -122.567     -83.142    -283.044
  H     -122.004     -84.784    -282.839
  H     -121.150     -83.695    -283.905

 3  4  5  6  7  8  9  10  11  12  23  26  30  31 0
 6-311+G(2d,p)
 ****
 33  35  36  37  38 0
 6-311+G(2d,p)
 ****
 1  2  13  14  15  16  17  18  19  20  21  22  24  25 0
 3-21G
 ****
 27  28  29  32  34  39  40  41  42  43  44  45  46  47  48  49 0
 3-21G
 ****


