%nproc=1
%NoSave
%Mem=1900MB
#P OB98/GEN NMR

erre ene a

0 1
  C      497.945     493.957    -293.801
  O      498.885     495.035    -293.850
  P      500.433     494.723    -294.128
  C      501.523     496.354    -292.425
  O      501.304     496.040    -293.806
  C      502.008     497.807    -292.295
  O      503.294     497.993    -292.937
  C      501.083     498.806    -292.978
  O      499.815     499.009    -292.380
  C      501.980     500.015    -293.126
  O      502.023     500.802    -291.942
  C      503.349     499.358    -293.404
  N      503.743     499.420    -294.816
  C      504.461     500.548    -295.199
  O      504.731     501.469    -294.436
  N      504.837     500.595    -296.522
  C      504.533     499.657    -297.470
  O      504.884     499.757    -298.641
  C      503.760     498.500    -297.008
  C      503.398     498.435    -295.719
  O      500.736     494.070    -295.435
  O      500.820     493.753    -292.908
  H      502.780     501.421    -292.021
  H      501.404     493.050    -293.258
  H      505.363     501.399    -296.817
  H      503.497     497.742    -297.739
  H      502.823     497.595    -295.355
  H      504.135     499.856    -292.822
  H      501.623     500.684    -293.932
  H      500.873     498.433    -293.994
  H      502.127     498.036    -291.229
  H      502.258     495.671    -292.005
  H      500.587     496.194    -291.871
  P      498.574     499.673    -293.159
  C      497.213     500.933    -291.340
  O      497.339     499.771    -292.142
  O      498.292     499.193    -294.541
  O      499.051     501.212    -293.240
  H      498.704     501.596    -294.072
  H      496.325     500.820    -290.702
  H      497.084     501.809    -291.977
  H      498.088     501.054    -290.703
  H      496.967     494.345    -293.607
  H      498.221     493.279    -293.021
  H      497.945     493.441    -294.738

 3  4  5  6  7  8  9  10  11  12  13  23  28  29  30  31  32 0
 6-311+G(2d,p)
 ****
 33  34 0
 6-311+G(2d,p)
 ****
 1  2  14  15  16  17  18  19  20  21  22  24  25  26  27 0
 3-21G
 ****
 35  36  37  38  39  40  41  42  43  44  45 0
 3-21G
 ****


