%nproc=1
%NoSave
%Mem=1900MB
#P OB98/GEN NMR

erre ene a

0 1
  C     -473.923    -675.888    1094.868
  O     -472.564    -675.909    1094.504
  P     -471.560    -674.723    1094.915
  C     -470.518    -675.800    1097.018
  O     -470.337    -675.462    1095.647
  C     -469.924    -677.158    1097.320
  O     -470.740    -678.174    1096.706
  C     -468.506    -677.403    1096.784
  O     -467.454    -676.916    1097.639
  C     -468.468    -678.923    1096.764
  O     -468.217    -679.418    1098.103
  C     -469.885    -679.277    1096.316
  N     -469.622    -682.786    1092.599
  C     -469.525    -682.886    1093.944
  N     -469.597    -681.905    1094.867
  C     -469.805    -680.711    1094.293
  C     -469.948    -680.472    1092.920
  C     -469.837    -681.562    1092.058
  N     -469.951    -681.458    1090.693
  N     -470.158    -679.108    1092.702
  C     -470.166    -678.565    1093.888
  N     -469.979    -679.507    1094.900
  O     -472.201    -673.616    1095.678
  O     -470.930    -674.246    1093.535
  H     -468.347    -680.384    1098.075
  H     -470.511    -673.373    1093.644
  H     -469.384    -683.885    1094.340
  H     -470.295    -677.521    1094.106
  H     -470.281    -680.179    1096.830
  H     -467.659    -679.313    1096.150
  H     -468.390    -677.025    1095.765
  H     -469.956    -677.323    1098.424
  H     -471.599    -675.819    1097.228
  H     -470.002    -682.341    1090.141
  H     -470.276    -680.589    1090.297
  H     -470.079    -675.013    1097.647
  P     -466.021    -676.686    1096.954
  C     -466.428    -674.093    1096.816
  O     -465.632    -675.164    1097.287
  O     -465.951    -677.049    1095.516
  O     -465.045    -677.528    1097.900
  H     -464.950    -677.196    1098.817
  H     -466.086    -673.182    1097.280
  H     -467.477    -674.244    1097.076
  H     -466.314    -673.998    1095.721
  H     -474.406    -676.767    1094.495
  H     -474.391    -675.021    1094.451
  H     -474.006    -675.860    1095.934

 3  4  5  6  7  8  9  10  11  12  22  25  29  30  31  32 0
 6-311+G(2d,p)
 ****
 33  36  37 0
 6-311+G(2d,p)
 ****
 1  2  13  14  15  16  17  18  19  20  21  23  24  26 0
 3-21G
 ****
 27  28  34  35  38  39  40  41  42  43  44  45  46  47  48 0
 3-21G
 ****


