%nproc=1
%NoSave
%Mem=1900MB
#P OB98/GEN NMR

erre ene a

0 1
  C       92.918     514.217     635.074
  O       92.938     515.149     634.001
  P       93.430     516.643     634.321
  C       95.982     516.314     633.750
  O       94.976     516.516     634.732
  C       96.915     517.527     633.696
  O       96.157     518.718     633.394
  C       97.642     517.824     635.003
  O       98.731     516.939     635.217
  C       98.039     519.285     634.791
  O       99.216     519.368     633.971
  C       96.819     519.838     634.030
  N       95.895     520.587     634.881
  C       96.301     521.866     635.252
  O       97.365     522.362     634.897
  N       95.436     522.550     636.069
  C       94.269     522.067     636.584
  O       93.554     522.709     637.346
  C       93.910     520.698     636.186
  C       94.726     520.031     635.365
  O       92.663     516.920     635.698
  O       93.128     517.608     633.223
  H       92.485     516.093     636.184
  H       99.403     520.318     633.853
  H       95.698     523.488     636.332
  H       92.995     520.279     636.582
  H       94.483     519.022     635.064
  H       97.146     520.495     633.213
  H       98.257     519.803     635.731
  H       96.939     517.754     635.845
  H       97.636     517.374     632.883
  H       95.505     516.177     632.771
  H       96.544     515.409     633.996
  P       99.140     516.664     636.744
  C       97.787     514.480     637.235
  O       97.915     515.877     637.406
  O       99.043     518.139     637.365
  O      100.481     516.015     636.897
  H       98.264     518.627     637.053
  H       97.136     514.088     638.018
  H       98.759     513.981     637.298
  H       97.334     514.273     636.261
  H       92.571     513.270     634.717
  H       92.262     514.571     635.842
  H       93.906     514.109     635.471

 3  4  5  6  7  8  9  10  11  12  13  24  28  29  30  31  32 0
 6-311+G(2d,p)
 ****
 33  34 0
 6-311+G(2d,p)
 ****
 1  2  14  15  16  17  18  19  20  21  22  23  25  26  27 0
 3-21G
 ****
 35  36  37  38  39  40  41  42  43  44  45 0
 3-21G
 ****


