%nproc=1
%NoSave
%Mem=1900MB
#P OB98/GEN NMR

erre ene a

0 1
  C     -104.370     778.345     590.677
  O     -103.465     778.336     591.777
  P     -102.720     776.961     592.112
  C     -100.335     776.288     592.941
  O     -101.213     777.323     592.534
  C      -98.908     776.626     592.515
  O      -98.793     776.634     591.075
  C      -98.445     778.009     592.972
  O      -98.065     778.004     594.335
  C      -97.279     778.266     592.018
  O      -96.080     777.652     592.478
  C      -97.767     777.587     590.722
  N      -98.249     778.550     589.734
  C      -97.357     778.875     588.711
  O      -96.229     778.402     588.647
  N      -97.798     779.788     587.791
  C      -99.000     780.435     587.813
  O      -99.315     781.282     586.989
  C      -99.887     780.074     588.931
  C      -99.475     779.177     589.827
  O     -102.543     776.263     590.675
  O     -103.437     776.077     593.071
  H      -95.374     777.900     591.859
  H     -102.629     775.287     590.773
  H      -97.187     780.005     587.028
  H     -100.852     780.568     588.985
  H     -100.123     778.907     590.665
  H      -96.962     777.012     590.269
  H      -97.068     779.337     591.911
  H      -99.235     778.742     592.790
  H      -98.245     775.848     592.905
  H     -100.654     775.346     592.474
  H     -100.393     776.168     594.035
  P      -97.660     779.415     594.991
  C      -97.414     780.224     597.460
  O      -97.594     779.137     596.570
  O      -99.021     780.241     594.755
  O      -96.457     780.022     594.365
  H      -99.810     779.676     594.805
  H      -97.948     781.121     597.108
  H      -96.352     780.434     597.569
  H      -97.830     779.935     598.430
  H     -104.792     779.322     590.570
  H     -105.152     777.636     590.853
  H     -103.846     778.083     589.782

 3  4  5  6  7  8  9  10  11  12  13  23  28  29  30  31  32 0
 6-311+G(2d,p)
 ****
 33  34 0
 6-311+G(2d,p)
 ****
 1  2  14  15  16  17  18  19  20  21  22  24  25  26 0
 3-21G
 ****
 27  35  36  37  38  39  40  41  42  43  44  45 0
 3-21G
 ****


