%nproc=1
%NoSave
%Mem=1900MB
#P OB98/GEN NMR

erre ene a

0 1
  C     -138.427      38.212    -332.365
  O     -137.956      36.937    -332.777
  P     -136.888      36.205    -331.827
  C     -136.294      33.724    -331.303
  O     -137.223      34.640    -331.872
  C     -136.789      32.290    -331.485
  O     -137.847      32.008    -330.548
  C     -137.374      31.991    -332.860
  O     -136.352      31.841    -333.834
  C     -138.158      30.720    -332.557
  O     -137.269      29.592    -332.511
  C     -138.714      31.014    -331.154
  N     -143.657      29.802    -330.575
  C     -142.535      29.054    -330.521
  N     -141.255      29.444    -330.707
  C     -141.194      30.759    -330.968
  C     -142.255      31.643    -331.079
  C     -143.539      31.119    -330.865
  N     -144.683      31.886    -330.927
  N     -141.807      32.912    -331.381
  C     -140.495      32.798    -331.441
  N     -140.076      31.520    -331.186
  O     -137.347      36.641    -330.360
  O     -135.459      36.560    -332.096
  H     -137.786      28.823    -332.193
  H     -136.577      36.738    -329.767
  H     -142.678      28.001    -330.295
  H     -139.811      33.609    -331.662
  H     -138.708      30.128    -330.502
  H     -138.929      30.500    -333.306
  H     -138.060      32.789    -333.164
  H     -135.950      31.612    -331.272
  H     -136.190      33.928    -330.232
  H     -145.568      31.403    -330.910
  H     -144.604      32.831    -331.283
  H     -135.319      33.865    -331.778
  P     -136.809      31.520    -335.336
  C     -135.927      32.272    -337.631
  O     -135.886      32.490    -336.231
  O     -138.236      32.240    -335.402
  O     -136.789      30.078    -335.707
  H     -138.199      33.151    -335.058
  H     -135.300      33.026    -338.119
  H     -136.952      32.368    -338.000
  H     -135.536      31.278    -337.870
  H     -139.128      38.583    -333.084
  H     -137.602      38.889    -332.289
  H     -138.906      38.124    -331.412

 3  4  5  6  7  8  9  10  11  12  22  25  29  30  31  32 0
 6-311+G(2d,p)
 ****
 33  36  37 0
 6-311+G(2d,p)
 ****
 1  2  13  14  15  16  17  18  19  20  21  23  24  26 0
 3-21G
 ****
 27  28  34  35  38  39  40  41  42  43  44  45  46  47  48 0
 3-21G
 ****


