%nproc=1
%NoSave
%Mem=1900MB
#P OB98/GEN NMR

erre ene a

0 1
  C     -224.968    -125.806      75.177
  O     -223.802    -125.025      75.338
  H     -224.742    -126.634      74.500
  H     -225.770    -125.208      74.737
  H     -225.292    -126.218      76.136
  P     -223.870    -123.735      76.289
  C     -225.377    -121.634      76.140
  O     -224.699    -122.657      75.429
  C     -226.120    -120.721      75.167
  O     -227.078    -121.461      74.382
  C     -226.939    -119.616      75.827
  O     -226.156    -118.560      76.355
  C     -227.781    -119.173      74.643
  O     -226.980    -118.380      73.748
  C     -228.142    -120.539      74.012
  N     -229.438    -121.045      74.463
  C     -230.304    -121.520      73.471
  O     -229.977    -121.497      72.286
  N     -231.546    -121.981      73.844
  C     -231.898    -121.949      75.090
  N     -233.141    -122.413      75.400
  C     -231.027    -121.436      76.164
  C     -229.824    -121.008      75.787
  O     -222.565    -123.253      76.835
  O     -224.932    -124.128      77.421
  H     -226.195    -118.913      73.526
  H     -225.004    -123.364      78.045
  H     -231.380    -121.403      77.185
  H     -229.128    -120.612      76.517
  H     -228.149    -120.475      72.917
  H     -228.642    -118.569      74.928
  H     -227.606    -120.027      76.593
  H     -225.379    -120.310      74.470
  H     -233.716    -122.757      74.643
  H     -224.635    -121.070      76.717
  H     -233.526    -122.354      76.332
  H     -226.104    -122.071      76.827
  P     -226.813    -117.686      77.533
  C     -229.336    -117.029      77.680
  O     -228.137    -117.027      76.922
  O     -225.798    -116.460      77.682
  O     -227.025    -118.416      78.822
  H     -225.184    -116.608      78.427
  H     -230.113    -116.551      77.120
  H     -229.179    -116.500      78.597
  H     -229.621    -118.038      77.895

 6  7  8  9  10  11  12  13  14  15  16  26  30  31  32  33  35 0
 6-311+G(2d,p)
 ****
 37  38 0
 6-311+G(2d,p)
 ****
 1  2  3  4  5  17  18  19  20  21  22  23  24  25 0
 3-21G
 ****
 27  28  29  34  36  39  40  41  42  43  44  45  46 0
 3-21G
 ****


