%nproc=1
%NoSave
%Mem=1900MB
#P OB98/GEN NMR

erre ene a

0 1
  C       12.938    -181.697     -87.484
  O       14.083    -182.114     -86.732
  P       15.530    -181.629     -87.230
  C       17.222    -182.350     -89.074
  O       16.058    -182.674     -88.329
  C       17.544    -183.469     -90.075
  O       17.926    -184.691     -89.400
  C       16.370    -183.837     -90.977
  O       16.265    -182.955     -92.087
  C       16.796    -185.218     -91.456
  O       17.755    -185.096     -92.524
  C       17.458    -185.809     -90.200
  N       15.929    -190.543     -89.246
  C       16.898    -190.076     -90.118
  N       17.564    -191.013     -90.833
  N       17.190    -188.810     -90.273
  C       16.454    -187.992     -89.481
  C       15.467    -188.331     -88.579
  C       15.146    -189.735     -88.428
  O       14.287    -190.207     -87.685
  N       14.946    -187.220     -87.966
  C       15.628    -186.211     -88.475
  N       16.546    -186.625     -89.413
  O       16.466    -181.943     -85.967
  O       15.591    -180.187     -87.621
  H       17.925    -186.001     -92.850
  H       17.225    -181.333     -85.955
  H       15.742    -191.527     -89.171
  H       15.497    -185.172     -88.197
  H       18.326    -186.436     -90.441
  H       15.954    -185.798     -91.851
  H       17.426    -192.005     -90.730
  H       15.433    -183.903     -90.403
  H       18.302    -190.689     -91.452
  H       18.387    -183.139     -90.696
  H       18.074    -182.197     -88.404
  H       17.065    -181.393     -89.581
  P       14.915    -182.094     -92.225
  C       12.899    -182.169     -93.864
  O       14.020    -182.846     -93.318
  O       15.418    -180.770     -92.980
  O       14.242    -181.769     -90.931
  H       14.879    -180.003     -92.703
  H       12.507    -182.760     -94.696
  H       13.182    -181.180     -94.231
  H       12.114    -182.070     -93.103
  H       12.052    -182.095     -87.035
  H       13.021    -182.056     -88.488
  H       12.886    -180.628     -87.491

 3  4  5  6  7  8  9  10  11  12  23  26  30  31 0
 6-311+G(2d,p)
 ****
 33  35  36  37  38 0
 6-311+G(2d,p)
 ****
 1  2  13  14  15  16  17  18  19  20  21  22  24  25 0
 3-21G
 ****
 27  28  29  32  34  39  40  41  42  43  44  45  46  47  48  49 0
 3-21G
 ****


