%nproc=1
%NoSave
%Mem=1900MB
#P OB98/GEN NMR

erre ene a

0 1
  C     -564.424     308.343      70.446
  O     -565.331     309.166      71.188
  P     -564.807     309.704      72.610
  C     -566.982     309.814      74.032
  O     -566.003     310.531      73.292
  C     -567.549     310.703      75.146
  O     -566.503     311.313      75.935
  C     -568.395     311.858      74.625
  O     -569.664     311.412      74.196
  C     -568.426     312.759      75.854
  O     -569.397     312.285      76.807
  C     -567.013     312.572      76.433
  N     -564.380     316.606      78.162
  C     -565.206     315.741      78.777
  N     -565.880     314.690      78.247
  C     -565.598     314.572      76.939
  C     -564.771     315.377      76.166
  C     -564.144     316.442      76.842
  N     -563.303     317.334      76.207
  N     -564.739     314.942      74.862
  C     -565.559     313.906      74.828
  N     -566.090     313.639      76.059
  O     -563.738     310.825      72.209
  O     -564.200     308.641      73.469
  H     -569.215     312.744      77.654
  H     -562.836     310.511      72.406
  H     -565.371     315.909      79.844
  H     -565.790     313.325      73.946
  H     -567.014     312.513      77.527
  H     -568.680     313.799      75.622
  H     -567.878     312.366      73.801
  H     -568.154     310.063      75.809
  H     -566.547     308.913      74.474
  H     -562.953     318.122      76.737
  H     -563.193     317.279      75.203
  H     -567.772     309.485      73.347
  P     -569.985     311.494      72.619
  C     -572.388     312.411      72.740
  O     -571.582     311.266      72.556
  O     -569.406     310.108      72.096
  O     -569.487     312.728      71.937
  H     -569.668     309.363      72.670
  H     -573.439     312.115      72.639
  H     -572.156     313.169      71.987
  H     -572.235     312.818      73.742
  H     -564.882     308.049      69.525
  H     -564.183     307.472      71.019
  H     -563.530     308.893      70.240

 3  4  5  6  7  8  9  10  11  12  22  25  29  30  31  32 0
 6-311+G(2d,p)
 ****
 33  36  37 0
 6-311+G(2d,p)
 ****
 1  2  13  14  15  16  17  18  19  20  21  23  24  26 0
 3-21G
 ****
 27  28  34  35  38  39  40  41  42  43  44  45  46  47  48 0
 3-21G
 ****


