%nproc=1
%NoSave
%Mem=1900MB
#P OB98/GEN NMR

erre ene a

0 1
  C       59.543      59.284     -94.844
  O       58.841      58.049     -94.665
  P       57.378      58.114     -94.013
  C       57.625      57.585     -91.484
  O       57.317      57.091     -92.779
  C       57.619      56.460     -90.439
  O       56.277      56.245     -89.919
  C       58.101      55.113     -90.986
  O       58.719      54.388     -89.916
  C       56.803      54.422     -91.355
  O       56.972      53.010     -91.481
  C       55.912      54.878     -90.200
  N       51.507      52.925     -88.713
  C       52.770      52.791     -88.169
  N       52.866      52.056     -87.041
  N       53.844      53.333     -88.684
  C       53.587      54.069     -89.792
  C       52.385      54.271     -90.430
  C       51.211      53.646     -89.863
  O       50.070      53.718     -90.310
  N       52.536      55.061     -91.542
  C       53.828      55.330     -91.577
  N       54.501      54.781     -90.518
  O       56.460      57.413     -95.124
  O       56.908      59.501     -93.721
  H       56.165      52.657     -91.912
  H       55.909      58.084     -95.566
  H       50.717      52.478     -88.280
  H       54.323      55.910     -92.341
  H       56.075      54.287     -89.290
  H       56.433      54.810     -92.312
  H       52.072      51.655     -86.564
  H       58.798      55.181     -91.826
  H       53.773      51.977     -86.598
  H       58.250      56.763     -89.596
  H       56.904      58.353     -91.193
  H       58.596      58.090     -91.520
  P       60.259      53.989     -90.104
  C       59.922      51.428     -89.850
  O       60.465      52.616     -89.307
  O       61.038      55.063     -89.208
  O       60.735      53.989     -91.519
  H       61.948      55.179     -89.534
  H       60.727      50.840     -90.300
  H       59.157      51.633     -90.605
  H       59.469      50.848     -89.042
  H       60.498      59.091     -95.286
  H       59.679      59.758     -93.894
  H       58.977      59.926     -95.486

 3  4  5  6  7  8  9  10  11  12  23  26  30  31 0
 6-311+G(2d,p)
 ****
 33  35  36  37  38 0
 6-311+G(2d,p)
 ****
 1  2  13  14  15  16  17  18  19  20  21  22  24  25 0
 3-21G
 ****
 27  28  29  32  34  39  40  41  42  43  44  45  46  47  48  49 0
 3-21G
 ****


