%nproc=1
%NoSave
%Mem=1900MB
#P OB98/GEN NMR

erre ene a

0 1
  C     -334.610     -68.086    -414.021
  O     -334.254     -69.297    -414.685
  P     -335.188     -70.591    -414.503
  C     -334.414     -71.376    -412.182
  O     -335.476     -70.803    -412.937
  C     -334.626     -71.217    -410.667
  O     -335.738     -72.038    -410.205
  C     -333.404     -71.597    -409.819
  O     -333.377     -70.703    -408.696
  C     -333.743     -73.008    -409.371
  O     -332.980     -73.423    -408.252
  C     -335.249     -72.863    -409.135
  N     -335.931     -74.153    -409.094
  C     -335.983     -74.807    -407.868
  O     -335.376     -74.349    -406.897
  N     -336.694     -75.979    -407.778
  C     -337.175     -76.518    -408.852
  N     -337.889     -77.671    -408.721
  C     -336.985     -75.943    -410.201
  C     -336.382     -74.762    -410.240
  O     -334.742     -71.810    -415.235
  O     -336.614     -70.080    -415.052
  H     -333.164     -74.368    -408.069
  H     -337.068     -70.828    -415.491
  H     -337.333     -76.468    -411.073
  H     -336.203     -74.252    -411.179
  H     -335.448     -72.334    -408.199
  H     -333.546     -73.712    -410.192
  H     -332.454     -71.518    -410.357
  H     -334.891     -70.171    -410.471
  H     -337.995     -78.064    -407.796
  H     -333.477     -70.892    -412.461
  H     -338.345     -78.124    -409.505
  H     -334.309     -72.433    -412.454
  P     -332.195     -69.622    -408.596
  C     -329.961     -70.342    -407.475
  O     -330.799     -70.403    -408.618
  O     -332.302     -69.165    -407.062
  O     -332.317     -68.433    -409.495
  H     -331.932     -68.263    -406.973
  H     -329.214     -71.135    -407.541
  H     -330.536     -70.485    -406.555
  H     -329.451     -69.375    -407.440
  H     -333.888     -67.330    -414.247
  H     -334.634     -68.252    -412.964
  H     -335.576     -67.768    -414.354

 3  4  5  6  7  8  9  10  11  12  13  23  27  28  29  30  32 0
 6-311+G(2d,p)
 ****
 34  35 0
 6-311+G(2d,p)
 ****
 1  2  14  15  16  17  18  19  20  21  22  24  25  26 0
 3-21G
 ****
 31  33  36  37  38  39  40  41  42  43  44  45  46 0
 3-21G
 ****


