%nproc=1
%NoSave
%Mem=1900MB
#P OB98/GEN NMR

erre ene a

0 1
  C      183.655    -282.182    -414.950
  O      185.016    -281.786    -414.982
  H      183.231    -281.972    -413.965
  H      183.105    -281.608    -415.703
  H      183.560    -283.248    -415.181
  P      186.035    -282.628    -414.075
  C      186.826    -280.866    -412.322
  O      187.117    -281.568    -413.530
  C      188.054    -280.075    -411.860
  O      189.180    -280.990    -411.742
  C      188.462    -278.958    -412.824
  O      188.898    -277.826    -412.059
  C      189.637    -279.550    -413.586
  O      190.502    -278.555    -414.096
  C      190.269    -280.436    -412.506
  N      195.007    -281.864    -413.796
  C      194.533    -280.784    -413.131
  N      193.257    -280.487    -412.825
  C      192.424    -281.468    -413.238
  C      192.757    -282.625    -413.921
  C      194.120    -282.809    -414.217
  N      194.606    -283.882    -414.923
  N      191.619    -283.365    -414.196
  C      190.627    -282.662    -413.691
  N      191.066    -281.511    -413.097
  O      186.853    -283.468    -415.173
  O      185.414    -283.510    -413.044
  H      191.232    -278.993    -414.593
  H      186.322    -284.242    -415.455
  H      195.287    -280.062    -412.816
  H      189.576    -282.945    -413.726
  H      190.931    -279.882    -411.834
  H      189.267    -280.145    -414.423
  H      187.649    -278.654    -413.489
  H      187.851    -279.685    -410.853
  H      186.539    -281.590    -411.555
  H      195.590    -283.906    -415.144
  H      193.951    -284.552    -415.294
  H      185.989    -280.183    -412.503
  P      187.750    -276.964    -411.319
  C      188.215    -274.668    -412.431
  O      188.237    -275.435    -411.236
  O      187.824    -277.473    -409.801
  O      186.386    -277.172    -411.901
  H      186.937    -277.708    -409.484
  H      188.563    -273.677    -412.225
  H      187.215    -274.623    -412.808
  H      188.851    -275.125    -413.160

 6  7  8  9  10  11  12  13  14  15  25  28  32  33  34  35 0
 6-311+G(2d,p)
 ****
 36  39  40 0
 6-311+G(2d,p)
 ****
 1  2  3  4  5  16  17  18  19  20  21  22  23  24 0
 3-21G
 ****
 26  27  29  30  31  37  38  41  42  43  44  45  46  47 0
 3-21G
 ****
 48 0
 3-21G
 ****


