%nproc=1
%NoSave
%Mem=1900MB
#P OB98/GEN NMR

erre ene a

0 1
  C     -150.107    -356.141     205.253
  O     -151.215    -356.940     204.873
  H     -150.306    -355.104     204.971
  H     -149.204    -356.481     204.734
  H     -149.957    -356.192     206.334
  P     -151.119    -358.501     205.220
  C     -149.238    -360.266     204.836
  O     -149.848    -359.057     204.412
  C     -149.735    -361.444     203.985
  O     -151.105    -361.757     204.377
  C     -149.763    -361.146     202.471
  O     -149.575    -362.394     201.776
  C     -151.193    -360.669     202.280
  O     -151.543    -360.656     200.912
  C     -151.919    -361.666     203.185
  N     -156.085    -362.967     205.847
  C     -154.863    -363.523     205.765
  N     -153.797    -363.116     205.045
  C     -154.086    -361.992     204.367
  C     -155.288    -361.299     204.359
  C     -156.326    -361.834     205.141
  N     -157.583    -361.267     205.220
  N     -155.202    -360.182     203.546
  C     -153.974    -360.203     203.071
  N     -153.264    -361.278     203.535
  O     -152.372    -359.128     204.439
  O     -151.140    -358.841     206.673
  H     -152.415    -360.225     200.780
  H     -153.134    -359.209     205.046
  H     -154.715    -364.432     206.359
  H     -153.548    -359.475     202.384
  H     -151.968    -362.665     202.736
  H     -151.318    -359.648     202.647
  H     -148.998    -360.437     202.155
  H     -149.129    -362.328     204.210
  H     -149.495    -360.433     205.888
  H     -148.151    -360.182     204.738
  H     -158.277    -361.724     205.791
  H     -157.781    -360.437     204.687
  P     -148.080    -362.942     201.546
  C     -145.827    -361.956     200.636
  O     -147.236    -361.822     200.763
  O     -148.298    -364.046     200.399
  O     -147.414    -363.543     202.741
  H     -147.608    -364.733     200.474
  H     -145.437    -361.123     200.089
  H     -145.600    -362.863     200.115
  H     -145.382    -361.983     201.609

 6  7  8  9  10  11  12  13  14  15  25  28  32  33  34  35 0
 6-311+G(2d,p)
 ****
 36  37  40 0
 6-311+G(2d,p)
 ****
 1  2  3  4  5  16  17  18  19  20  21  22  23  24 0
 3-21G
 ****
 26  27  29  30  31  38  39 41  42  43  44  45  46  47  48 0
 3-21G
 ****


