%nproc=1
%NoSave
%Mem=1900MB
#P OB98/GEN NMR

erre ene a

0 1
  C      930.851    -604.494    -308.424
  O      929.879    -603.468    -308.464
  H      931.451    -604.485    -309.341
  H      931.513    -604.310    -307.565
  H      930.375    -605.466    -308.299
  P      928.813    -603.557    -309.669
  C      927.029    -603.955    -307.823
  O      927.530    -604.344    -309.102
  C      925.619    -604.465    -307.628
  O      924.733    -603.663    -308.466
  C      925.395    -605.931    -308.036
  O      924.735    -606.648    -306.978
  C      924.487    -605.901    -309.246
  O      923.593    -606.983    -309.295
  C      923.763    -604.549    -309.045
  N      919.737    -604.463    -312.175
  C      919.835    -604.729    -310.854
  N      920.939    -604.663    -310.055
  C      921.996    -604.193    -310.756
  C      922.045    -603.843    -312.094
  C      920.840    -604.006    -312.821
  N      920.757    -603.782    -314.173
  N      923.304    -603.406    -312.462
  C      924.029    -603.563    -311.345
  N      923.278    -604.021    -310.291
  O      929.496    -604.611    -310.675
  O      928.539    -602.257    -310.339
  H      924.117    -607.809    -309.422
  H      929.650    -604.173    -311.535
  H      918.917    -605.077    -310.385
  H      925.087    -603.356    -311.261
  H      922.921    -604.631    -308.352
  H      925.118    -605.897    -310.140
  H      926.357    -606.440    -308.274
  H      925.333    -604.305    -306.598
  H      927.044    -602.850    -307.746
  H      919.895    -604.033    -314.656
  H      921.597    -603.554    -314.691
  H      927.696    -604.367    -307.054
  P      925.124    -608.192    -306.810
  C      925.913    -608.037    -304.335
  O      926.289    -608.306    -305.688
  O      925.886    -608.568    -308.161
  O      923.942    -609.110    -306.581
  H      925.433    -609.299    -308.621
  H      926.767    -608.146    -303.699
  H      925.153    -608.726    -304.032
  H      925.538    -607.038    -304.261

 6  7  8  9  10  11  12  13  14  15  25  28  32  33  34  35 0
 6-311+G(2d,p)
 ****
 36  39  40 0
 6-311+G(2d,p)
 ****
 1  2  3  4  5  16  17  18  19  20  21  22  23  24 0
 3-21G
 ****
 26  27  29  30  31  37  38  41  42  43  44  45  46  47  48 0
 3-21G
 ****


