%nproc=1
%NoSave
%Mem=1900MB
#P OB98/GEN NMR

erre ene a

0 1
  C      -53.440    -113.792    -330.921
  O      -53.887    -114.393    -329.700
  P      -55.133    -115.404    -329.818
  C      -57.223    -113.954    -330.350
  O      -56.182    -114.781    -330.864
  C      -58.602    -114.396    -330.851
  O      -58.709    -114.110    -332.270
  C      -58.905    -115.887    -330.669
  O      -60.293    -116.037    -330.340
  C      -58.706    -116.456    -332.063
  O      -59.412    -117.679    -332.253
  C      -59.209    -115.291    -332.915
  N      -58.633    -118.218    -337.001
  C      -59.267    -118.488    -335.799
  N      -59.803    -119.723    -335.671
  N      -59.366    -117.626    -334.826
  C      -58.814    -116.423    -335.111
  C      -58.168    -116.031    -336.263
  C      -58.029    -117.011    -337.320
  O      -57.431    -116.846    -338.386
  N      -57.741    -114.726    -336.177
  C      -58.119    -114.339    -334.977
  N      -58.768    -115.333    -334.286
  O      -55.857    -115.257    -328.398
  O      -54.733    -116.821    -330.086
  H      -60.364    -117.464    -332.267
  H      -55.929    -116.131    -327.970
  H      -58.566    -118.927    -337.714
  H      -57.931    -113.362    -334.547
  H      -60.308    -115.240    -332.909
  H      -57.640    -116.648    -332.233
  H      -59.819    -120.410    -336.406
  H      -58.287    -116.385    -329.920
  H      -60.312    -119.928    -334.816
  H      -59.359    -113.789    -330.341
  H      -57.044    -112.917    -330.654
  H      -57.188    -113.991    -329.257
  P      -60.667    -115.977    -328.775
  C      -60.483    -118.571    -328.640
  O      -60.059    -117.317    -328.136
  O      -62.250    -116.229    -328.769
  O      -60.289    -114.695    -328.108
  H      -62.652    -115.813    -327.981
  H      -61.047    -118.474    -329.574
  H      -61.117    -119.059    -327.896
  H      -59.600    -119.190    -328.822
  H      -52.613    -113.144    -330.718
  H      -54.239    -113.226    -331.353
  H      -53.135    -114.557    -331.604

 3  4  5  6  7  8  9  10  11  12  23  26  30  31  33  0
 6-311+G(2d,p)
 ****
 35  36  37  38 0
 6-311+G(2d,p)
 ****
 1  2  13  14  15  16  17  18  19  20  21  22  24  25  27  28  29 0
 3-21G
 ****
 32  34  39  40  41  42  43  44  45  46  47  48  49 0
 3-21G
 ****


