%nproc=1
%NoSave
%Mem=1900MB
#P OB98/GEN NMR

erre ene a

0 1
  C     1152.131    -111.013     295.423
  O     1151.957    -112.398     295.182
  P     1152.939    -113.424     295.946
  C     1153.106    -115.209     294.054
  O     1152.607    -114.868     295.359
  C     1152.619    -116.576     293.618
  O     1153.094    -117.595     294.520
  C     1151.089    -116.721     293.635
  O     1150.505    -116.170     292.440
  C     1150.954    -118.231     293.643
  O     1151.142    -118.774     292.314
  C     1152.108    -118.651     294.576
  N     1151.209    -122.155     298.186
  C     1151.532    -122.267     296.900
  N     1151.761    -121.297     295.982
  C     1151.552    -120.087     296.547
  C     1151.180    -119.791     297.844
  C     1151.014    -120.911     298.709
  N     1150.701    -120.780     300.047
  N     1151.068    -118.450     298.043
  C     1151.381    -117.896     296.889
  N     1151.698    -118.853     295.956
  O     1152.327    -113.463     297.430
  O     1154.385    -113.025     295.949
  H     1150.337    -118.571     291.804
  H     1153.007    -113.749     298.068
  H     1151.656    -123.286     296.524
  H     1151.401    -116.834     296.683
  H     1152.595    -119.569     294.245
  H     1149.960    -118.570     293.970
  H     1150.667    -116.297     294.529
  H     1153.021    -116.784     292.624
  H     1154.204    -115.223     294.094
  H     1150.788    -121.600     300.623
  H     1150.753    -119.858     300.463
  H     1152.797    -114.423     293.352
  P     1149.518    -114.901     292.653
  C     1147.997    -116.445     291.194
  O     1148.347    -115.124     291.592
  O     1150.378    -113.715     292.044
  O     1149.117    -114.691     294.062
  H     1150.093    -112.871     292.447
  H     1147.004    -116.427     290.742
  H     1147.983    -117.125     292.077
  H     1148.730    -116.831     290.487
  H     1151.415    -110.459     294.853
  H     1153.119    -110.722     295.134
  H     1151.990    -110.812     296.464

 3  4  5  6  7  8  9  10  11  12  22  25  29  30  31  32 0
 6-311+G(2d,p)
 ****
 33  36  37 0
 6-311+G(2d,p)
 ****
 1  2  13  14  15  16  17  18  19  20  21  23  24  26 0
 3-21G
 ****
 27  28  34  35  38  39  40  41  42  43  44  45  46  47  48 0
 3-21G
 ****


