%nproc=1
%NoSave
%Mem=1900MB
#P OB98/GEN NMR

erre ene a

0 1
  C       58.745      64.576     -96.717
  O       59.766      63.902     -96.013
  H       58.029      64.983     -95.996
  H       58.222      63.882     -97.378
  H       59.166      65.401     -97.299
  P       60.925      63.225     -96.891
  C       59.661      60.962     -96.784
  O       60.881      61.653     -96.553
  C       59.784      59.502     -96.345
  O       61.127      59.030     -96.646
  C       59.543      59.284     -94.844
  O       58.841      58.049     -94.665
  C       60.948      59.138     -94.288
  O       60.968      58.426     -93.056
  C       61.636      58.420     -95.445
  N       65.868      55.737     -94.988
  C       64.552      55.328     -95.082
  N       64.323      53.997     -95.045
  N       63.546      56.152     -95.199
  C       63.921      57.453     -95.249
  C       65.182      57.987     -95.155
  C       66.288      57.064     -95.003
  O       67.472      57.368     -94.891
  N       65.143      59.358     -95.211
  C       63.861      59.650     -95.340
  N       63.082      58.526     -95.371
  O       62.270      63.716     -96.177
  O       60.906      63.554     -98.346
  H       61.905      58.307     -92.793
  H       63.000      63.789     -96.822
  H       66.604      55.061     -94.888
  H       63.449      60.647     -95.412
  H       61.396      57.349     -95.474
  H       61.392      60.126     -94.122
  H       65.052      53.301     -94.989
  H       58.987      60.094     -94.368
  H       63.366      53.673     -95.127
  H       59.096      58.897     -96.946
  H       59.426      61.001     -97.853
  H       58.860      61.451     -96.223
  P       57.378      58.114     -94.013
  C       57.625      57.585     -91.484
  O       57.317      57.091     -92.779
  O       56.460      57.413     -95.124
  O       56.908      59.501     -93.721
  H       55.909      58.084     -95.566
  H       57.542      56.792     -90.771
  H       56.941      58.367     -91.229
  H       58.624      57.968     -91.477

 6  7  8  9  10  11  12  13  14  15  26  29  33  34 0
 6-311+G(2d,p)
 ****
 36  38  39  40  41 0
 6-311+G(2d,p)
 ****
 1  2  3  4  5  16  17  18  19  20  21  22  23  24  25 0
 3-21G
 ****
 27  28  30  31  32  35  37  42  43  44  45  46  47 0
 3-21G
 ****
 48  49 0
 3-21G
 ****


