%nproc=1
%NoSave
%Mem=1900MB
#P OB98/GEN NMR

erre ene a

0 1
  C      386.574      26.664     148.360
  O      386.668      26.724     149.770
  H      386.985      25.720     147.993
  H      385.518      26.724     148.076
  H      387.108      27.505     147.909
  P      388.140      26.614     150.399
  C      387.582      24.095     150.665
  O      388.568      25.067     150.332
  C      388.220      22.708     150.722
  O      388.758      22.396     149.410
  C      389.355      22.562     151.749
  O      389.050      21.516     152.678
  C      390.560      22.136     150.925
  O      391.357      21.139     151.563
  C      389.941      21.622     149.629
  N      393.797      19.366     147.180
  C      392.837      18.865     147.986
  N      391.776      19.499     148.522
  C      391.741      20.782     148.125
  C      392.636      21.430     147.290
  C      393.718      20.667     146.822
  N      394.727      21.193     146.039
  N      392.273      22.756     147.119
  C      391.205      22.917     147.876
  N      390.859      21.756     148.521
  O      387.892      26.866     151.962
  O      389.141      27.569     149.839
  H      391.784      21.565     152.327
  H      388.535      27.520     152.296
  H      392.940      17.811     148.244
  H      390.682      23.849     148.030
  H      389.647      20.567     149.704
  H      391.190      23.015     150.741
  H      389.556      23.493     152.291
  H      387.428      21.974     150.922
  H      386.796      24.097     149.905
  H      395.521      20.607     145.845
  H      394.729      22.186     145.860
  H      387.135      24.360     151.625
  P      388.113      21.908     153.926
  C      389.651      20.925     155.784
  O      389.069      22.084     155.203
  O      387.335      20.543     154.236
  O      387.176      23.035     153.650
  H      386.476      20.735     154.656
  H      390.256      21.210     156.619
  H      390.258      20.428     155.057
  H      388.877      20.264     156.114

 6  7  8  9  10  11  12  13  14  15  25  28  32  33  34  35 0
 6-311+G(2d,p)
 ****
 36  39  40 0
 6-311+G(2d,p)
 ****
 1  2  3  4  5  16  17  18  19  20  21  22  23  24 0
 3-21G
 ****
 26  27  29  30  31  37  38  41  42  43  44  45  46  47  48 0
 3-21G
 ****


