%nproc=1
%NoSave
%Mem=1900MB
#P OB98/GEN NMR

erre ene a

0 1
  C     -323.034     -55.521     235.674
  O     -324.444     -55.382     235.607
  P     -325.218     -54.950     236.946
  C     -324.368     -52.461     236.842
  O     -324.405     -53.700     237.534
  C     -324.506     -51.301     237.830
  O     -325.846     -51.271     238.368
  C     -323.584     -51.384     239.039
  O     -322.253     -51.008     238.717
  C     -324.290     -50.447     240.014
  O     -323.974     -49.080     239.709
  C     -325.774     -50.732     239.708
  N     -326.400     -51.632     240.674
  C     -327.535     -51.146     241.318
  O     -328.005     -50.031     241.106
  N     -328.104     -51.989     242.238
  C     -327.624     -53.213     242.613
  O     -328.150     -53.907     243.474
  C     -326.404     -53.655     241.921
  C     -325.857     -52.858     241.000
  O     -324.841     -56.171     237.910
  O     -326.678     -54.736     236.736
  H     -323.992     -56.579     237.661
  H     -323.068     -48.925     240.043
  H     -328.942     -51.670     242.699
  H     -325.988     -54.615     242.199
  H     -324.954     -53.164     240.487
  H     -326.344     -49.797     239.688
  H     -324.001     -50.625     241.055
  H     -323.589     -52.404     239.442
  H     -324.340     -50.363     237.284
  H     -325.191     -52.429     236.122
  H     -323.421     -52.388     236.295
  P     -321.105     -51.497     239.727
  C     -319.989     -53.548     238.552
  O     -320.933     -53.069     239.485
  O     -321.862     -51.392     241.134
  O     -319.848     -50.691     239.642
  H     -322.776     -51.721     241.094
  H     -319.768     -54.594     238.779
  H     -319.059     -52.972     238.593
  H     -320.410     -53.488     237.543
  H     -322.658     -55.811     234.715
  H     -322.783     -56.270     236.396
  H     -322.597     -54.588     235.961

 3  4  5  6  7  8  9  10  11  12  13  24  28  29  30  31  32 0
 6-311+G(2d,p)
 ****
 33  34 0
 6-311+G(2d,p)
 ****
 1  2  14  15  16  17  18  19  20  21  22  23  25  26  27 0
 3-21G
 ****
 35  36  37  38  39  40  41  42  43  44  45 0
 3-21G
 ****


