%nproc=1
%NoSave
%Mem=1900MB
#P OB98/GEN NMR

erre ene a

0 1
  C      104.147      72.020     -89.252
  O      103.889      73.234     -88.574
  H      103.221      71.680     -89.724
  H      104.487      71.255     -88.548
  H      104.901      72.179     -90.027
  P      105.121      73.887     -87.778
  C      106.174      73.467     -85.464
  O      105.209      73.035     -86.416
  C      105.864      72.875     -84.086
  O      104.721      73.575     -83.531
  C      105.525      71.383     -84.127
  O      106.082      70.743     -82.980
  C      104.007      71.361     -84.037
  O      103.513      70.140     -83.494
  C      103.730      72.594     -83.176
  N       98.876      72.381     -81.619
  C      100.009      71.850     -81.115
  N      101.272      71.972     -81.586
  C      101.299      72.772     -82.667
  C      100.227      73.380     -83.297
  C       98.959      73.155     -82.728
  N       97.794      73.671     -83.250
  N      100.653      74.088     -84.404
  C      101.963      73.918     -84.435
  N      102.395      73.117     -83.414
  O      105.068      75.368     -87.603
  O      106.371      73.338     -88.611
  H      103.743      69.413     -84.109
  H      106.270      72.392     -88.828
  H       99.892      71.244     -80.219
  H      102.633      74.342     -85.177
  H      103.812      72.386     -82.102
  H      103.578      71.484     -85.038
  H      105.884      70.896     -85.033
  H      106.712      73.074     -83.421
  H      106.179      74.561     -85.399
  H       96.930      73.470     -82.771
  H       97.838      74.264     -84.067
  H      107.160      73.134     -85.806
  P      107.356      69.790     -83.179
  C      107.852      67.393     -84.001
  O      106.860      68.397     -83.801
  O      108.278      69.680     -82.012
  O      108.101      70.471     -84.427
  H      109.067      70.407     -84.294
  H      107.396      66.519     -84.418
  H      108.304      67.147     -83.063
  H      108.600      67.760     -84.672

 6  7  8  9  10  11  12  13  14  15  25  28  32  33  34  35 0
 6-311+G(2d,p)
 ****
 36  39  40 0
 6-311+G(2d,p)
 ****
 1  2  3  4  5  16  17  18  19  20  21  22  23  24 0
 3-21G
 ****
 26  27  29  30  31  37  38  41  42  43  44  45  46  47 0
 3-21G
 ****
 48 0
 3-21G
 ****


