%nproc=1
%NoSave
%Mem=1900MB
#P OB98/GEN NMR

erre ene a

0 1
  C      238.547    -406.823    -672.758
  O      239.351    -406.791    -671.570
  P      238.625    -407.051    -670.163
  C      239.311    -409.560    -670.175
  O      238.261    -408.609    -670.075
  C      239.472    -410.319    -668.857
  O      240.044    -409.479    -667.826
  C      238.161    -410.845    -668.286
  O      237.786    -412.079    -668.883
  C      238.539    -411.068    -666.832
  O      239.256    -412.314    -666.701
  C      239.473    -409.882    -666.554
  N      238.728    -407.329    -662.248
  C      239.511    -408.441    -662.502
  N      240.208    -408.939    -661.453
  N      239.606    -409.009    -663.672
  C      238.874    -408.393    -664.633
  C      238.060    -407.291    -664.502
  C      237.950    -406.680    -663.199
  O      237.262    -405.705    -662.909
  N      237.472    -406.964    -665.698
  C      237.943    -407.852    -666.550
  N      238.785    -408.753    -665.947
  O      237.191    -406.366    -670.373
  O      239.343    -406.480    -668.984
  H      240.094    -412.208    -667.193
  H      236.837    -406.072    -669.511
  H      238.686    -406.935    -661.326
  H      237.706    -407.884    -667.605
  H      240.304    -410.147    -665.889
  H      237.665    -411.135    -666.175
  H      240.216    -408.518    -660.538
  H      237.367    -410.089    -668.358
  H      240.811    -409.728    -661.628
  H      240.152    -411.164    -669.031
  H      240.250    -409.065    -670.438
  H      239.093    -410.240    -671.004
  P      236.383    -412.136    -669.661
  C      237.591    -411.550    -671.889
  O      236.565    -411.225    -670.968
  O      235.417    -411.276    -668.717
  O      235.851    -413.512    -669.890
  H      234.504    -411.614    -668.777
  H      237.463    -410.935    -672.778
  H      237.538    -412.602    -672.170
  H      238.569    -411.333    -671.442
  H      239.164    -406.634    -673.611
  H      237.787    -406.073    -672.694
  H      238.091    -407.786    -672.854

 3  4  5  6  7  8  9  10  11  12  23  26  30  31 0
 6-311+G(2d,p)
 ****
 33  35  36  37  38 0
 6-311+G(2d,p)
 ****
 1  2  13  14  15  16  17  18  19  20  21  22  24  25 0
 3-21G
 ****
 27  28  29  32  34  39  40  41  42  43  44  45  46  47  48  49 0
 3-21G
 ****


