%nproc=1
%NoSave
%Mem=1900MB
#P OB98/GEN NMR

erre ene a

0 1
  C      178.088    -145.544      15.048
  O      178.399    -145.183      13.716
  H      177.660    -146.550      15.045
  H      177.357    -144.853      15.475
  H      178.994    -145.553      15.659
  P      178.937    -143.701      13.435
  C      181.426    -143.564      14.125
  O      180.498    -143.837      13.086
  C      182.807    -143.223      13.547
  O      183.676    -142.789      14.630
  C      183.499    -144.414      12.856
  O      184.333    -143.879      11.820
  C      184.337    -144.970      13.988
  O      185.312    -145.866      13.514
  C      184.824    -143.668      14.637
  N      185.348    -143.874      15.977
  C      186.727    -144.069      16.081
  O      187.430    -144.079      15.068
  N      187.276    -144.284      17.317
  C      186.501    -144.364      18.357
  N      187.103    -144.595      19.555
  C      185.034    -144.222      18.287
  C      184.528    -143.974      17.078
  O      178.615    -142.683      14.477
  O      178.285    -143.316      12.023
  H      185.900    -146.164      14.247
  H      177.550    -142.690      12.160
  H      184.430    -144.316      19.177
  H      183.459    -143.853      16.926
  H      185.605    -143.194      14.025
  H      183.714    -145.528      14.693
  H      182.791    -145.134      12.438
  H      182.701    -142.373      12.861
  H      188.113    -144.701      19.557
  H      181.494    -144.457      14.751
  H      186.605    -144.697      20.427
  H      181.070    -142.728      14.741
  P      184.261    -144.382      10.297
  C      183.531    -142.487       8.705
  O      184.624    -143.167       9.319
  O      182.988    -145.083       9.950
  O      185.509    -145.378      10.131
  H      185.282    -146.064       9.475
  H      183.904    -141.702       8.081
  H      182.900    -142.071       9.462
  H      182.969    -143.178       8.112

 6  7  8  9  10  11  12  13  14  15  16  26  30  31  32  33  35 0
 6-311+G(2d,p)
 ****
 37  38 0
 6-311+G(2d,p)
 ****
 1  2  3  4  5  17  18  19  20  21  22  23  24  25 0
 3-21G
 ****
 27  28  29  34  36  39  40  41  42  43  44  45  46 0
 3-21G
 ****


