%nproc=1
%NoSave
%Mem=1900MB
#P OB98/GEN NMR

erre ene a

0 1
  C      583.786     223.325    -525.095
  O      583.965     222.036    -525.648
  H      584.712     223.661    -524.610
  H      583.534     224.019    -525.894
  H      582.967     223.318    -524.367
  P      584.362     220.869    -524.606
  C      586.947     220.868    -524.769
  O      585.810     221.253    -524.013
  C      588.120     221.801    -524.469
  O      589.231     221.425    -525.327
  C      587.811     223.304    -524.714
  O      588.197     224.080    -523.573
  C      588.703     223.668    -525.878
  O      589.194     225.018    -525.802
  C      589.835     222.648    -525.780
  N      593.952     223.881    -528.541
  C      593.724     223.916    -527.205
  N      592.647     223.470    -526.523
  C      591.743     222.935    -527.360
  C      591.845     222.814    -528.739
  C      593.002     223.324    -529.347
  N      593.204     223.347    -530.702
  N      590.699     222.199    -529.262
  C      589.922     222.009    -528.228
  N      590.493     222.447    -527.058
  O      584.659     219.619    -525.565
  O      583.309     220.556    -523.601
  H      589.857     225.104    -526.517
  H      584.035     218.900    -525.340
  H      594.521     224.338    -526.613
  H      588.911     221.599    -528.268
  H      590.591     222.939    -525.040
  H      588.145     223.557    -526.812
  H      586.754     223.473    -524.952
  H      588.438     221.644    -523.426
  H      586.703     220.925    -525.846
  H      594.007     223.843    -531.049
  H      592.451     223.042    -531.307
  H      587.201     219.833    -524.523
  P      587.076     224.213    -522.412
  C      586.518     226.739    -522.813
  O      586.052     225.383    -522.844
  O      587.906     224.860    -521.182
  O      586.452     222.932    -522.022
  H      587.834     224.284    -520.399
  H      585.731     227.394    -523.124
  H      587.352     226.845    -523.475
  H      586.819     226.990    -521.817

 6  7  8  9  10  11  12  13  14  15  25  28  32  33  34  35 0
 6-311+G(2d,p)
 ****
 36  39  40 0
 6-311+G(2d,p)
 ****
 1  2  3  4  5  16  17  18  19  20  21  22  23  24 0
 3-21G
 ****
 26  27  29  30  31  37  38  41  42  43  44  45  46  47  48 0
 3-21G
 ****


