%nproc=1
%NoSave
%Mem=1900MB
#P OB98/GEN NMR

erre ene a

0 1
  C      190.690    -275.192    -140.116
  O      189.576    -274.799    -140.896
  H      190.409    -275.160    -139.060
  H      191.523    -274.502    -140.280
  H      190.992    -276.212    -140.372
  P      189.779    -274.776    -142.486
  C      189.084    -277.235    -142.956
  O      188.748    -275.860    -143.091
  C      187.825    -278.100    -143.059
  O      186.918    -277.745    -141.975
  C      187.055    -277.929    -144.380
  O      186.538    -279.207    -144.781
  C      185.897    -277.025    -143.991
  O      184.795    -277.149    -144.886
  C      185.623    -277.510    -142.572
  N      180.959    -275.803    -141.721
  C      181.408    -276.831    -142.529
  N      180.465    -277.518    -143.221
  N      182.663    -277.164    -142.652
  C      183.496    -276.417    -141.877
  C      183.182    -275.365    -141.049
  C      181.788    -274.993    -140.941
  O      181.334    -274.077    -140.256
  N      184.316    -274.840    -140.464
  C      185.305    -275.574    -140.946
  N      184.857    -276.547    -141.800
  O      191.206    -275.475    -142.694
  O      189.715    -273.427    -143.123
  H      184.506    -278.085    -144.877
  H      191.656    -275.126    -143.484
  H      179.984    -275.579    -141.672
  H      186.352    -275.443    -140.710
  H      185.059    -278.452    -142.557
  H      186.225    -275.976    -143.988
  H      179.476    -277.338    -143.152
  H      187.658    -277.510    -145.191
  H      180.773    -278.286    -143.810
  H      188.107    -279.145    -142.900
  H      189.553    -277.395    -141.980
  H      189.790    -277.509    -143.744
  P      187.275    -279.965    -145.989
  C      188.758    -281.587    -144.599
  O      187.666    -281.445    -145.501
  O      188.695    -279.212    -146.060
  O      186.544    -279.882    -147.289
  H      188.724    -278.652    -146.869
  H      188.897    -282.622    -144.367
  H      188.551    -281.045    -143.700
  H      189.647    -281.201    -145.052

 6  7  8  9  10  11  12  13  14  15  26  29  33  34 0
 6-311+G(2d,p)
 ****
 36  38  39  40  41 0
 6-311+G(2d,p)
 ****
 1  2  3  4  5  16  17  18  19  20  21  22  23  24  25 0
 3-21G
 ****
 27  28  30  31  32  35  37  42  43  44  45  46  47 0
 3-21G
 ****
 48  49 0
 3-21G
 ****


