%nproc=1
%NoSave
%Mem=1900MB
#P OB98/GEN NMR

erre ene a

0 1
  C       70.098     313.923     -40.834
  O       69.107     314.952     -40.879
  P       69.369     316.261     -41.761
  C       67.504     316.053     -43.541
  O       68.899     315.986     -43.269
  C       67.248     316.955     -44.753
  O       67.699     316.335     -45.981
  C       65.770     317.235     -44.983
  O       65.124     318.058     -44.033
  C       65.748     317.693     -46.430
  O       66.081     319.076     -46.550
  C       66.857     316.811     -47.052
  N       66.319     315.701     -47.842
  C       66.223     315.920     -49.212
  O       66.518     316.983     -49.750
  N       65.730     314.874     -49.947
  C       65.306     313.675     -49.453
  O       64.854     312.779     -50.155
  C       65.411     313.513     -47.993
  C       65.905     314.519     -47.266
  O       70.719     316.880     -41.619
  O       68.238     317.273     -41.233
  H       65.295     319.588     -46.281
  H       68.640     318.162     -41.166
  H       65.660     315.010     -50.944
  H       65.079     312.578     -47.565
  H       65.991     314.420     -46.190
  H       67.497     317.409     -47.712
  H       64.758     317.562     -46.881
  H       65.236     316.274     -44.948
  H       67.815     317.879     -44.625
  H       66.972     316.434     -42.669
  H       67.127     315.038     -43.716
  P       63.549     317.987     -43.733
  C       63.824     317.044     -41.333
  O       63.298     316.854     -42.628
  O       62.625     318.017     -44.905
  O       63.332     319.328     -42.876
  H       62.439     319.673     -43.069
  H       63.572     316.173     -40.720
  H       63.389     317.935     -40.870
  H       64.913     317.139     -41.373
  H       69.759     313.129     -40.202
  H       71.011     314.324     -40.445
  H       70.266     313.546     -41.821

 3  4  5  6  7  8  9  10  11  12  13  23  28  29  30  31  32 0
 6-311+G(2d,p)
 ****
 33  34 0
 6-311+G(2d,p)
 ****
 1  2  14  15  16  17  18  19  20  21  22  24  25  26  27 0
 3-21G
 ****
 35  36  37  38  39  40  41  42  43  44  45 0
 3-21G
 ****


