%nproc=1
%NoSave
%Mem=1900MB
#P OB98/GEN NMR

erre ene a

0 1
  C     -883.976    1116.929      69.519
  O     -885.073    1116.077      69.768
  H     -884.337    1117.824      69.013
  H     -883.252    1116.421      68.866
  H     -883.490    1117.210      70.455
  P     -884.745    1114.691      70.523
  C     -886.913    1114.405      71.955
  O     -886.163    1114.006      70.821
  C     -887.941    1113.334      72.352
  O     -888.857    1113.133      71.232
  C     -887.308    1111.948      72.655
  O     -888.145    1111.288      73.599
  C     -887.406    1111.282      71.305
  O     -887.172    1109.884      71.428
  C     -888.792    1111.727      70.879
  N     -891.497    1109.084      67.452
  C     -891.502    1109.064      68.787
  N     -890.764    1109.815      69.643
  C     -889.964    1110.656      68.966
  C     -889.858    1110.795      67.598
  C     -890.666    1109.963      66.808
  N     -890.663    1109.953      65.434
  N     -888.914    1111.763      67.267
  C     -888.483    1112.212      68.433
  N     -889.078    1111.563      69.472
  O     -884.253    1115.168      71.971
  O     -883.745    1113.815      69.850
  H     -887.731    1109.490      72.121
  H     -883.285    1115.220      71.988
  H     -892.196    1108.360      69.256
  H     -887.722    1112.998      68.564
  H     -889.577    1111.213      71.450
  H     -886.637    1111.654      70.618
  H     -886.275    1112.030      73.056
  H     -888.530    1113.711      73.196
  H     -887.436    1115.349      71.719
  H     -886.231    1114.586      72.801
  H     -891.266    1109.320      64.934
  H     -890.044    1110.600      64.951
  P     -887.466    1110.523      74.851
  C     -888.340    1112.062      76.782
  O     -888.357    1110.779      76.157
  O     -886.189    1111.443      75.152
  O     -887.073    1109.110      74.614
  H     -885.484    1110.901      75.541
  H     -888.988    1112.053      77.633
  H     -888.676    1112.802      76.086
  H     -887.343    1112.293      77.095

 6  7  8  9  10  11  12  13  14  15  25  28  32  33  34  35 0
 6-311+G(2d,p)
 ****
 36  37  40 0
 6-311+G(2d,p)
 ****
 1  2  3  4  5  16  17  18  19  20  21  22  23  24 0
 3-21G
 ****
 26  27  29  30  31  38  39 41  42  43  44  45  46  47  48 0
 3-21G
 ****


