%nproc=1
%NoSave
%Mem=1900MB
#P OB98/GEN NMR

erre ene a

0 1
  C      252.866    -287.188     254.447
  O      253.916    -286.437     253.826
  P      253.681    -285.928     252.321
  C      252.206    -283.854     252.877
  O      252.285    -285.139     252.272
  C      251.789    -282.804     251.851
  O      250.385    -282.907     251.536
  C      251.986    -281.377     252.336
  O      253.344    -281.001     252.254
  C      251.073    -280.592     251.400
  O      251.761    -280.167     250.215
  C      249.962    -281.616     251.055
  N      248.666    -281.251     251.603
  C      248.156    -280.010     251.184
  O      248.806    -279.299     250.423
  N      246.936    -279.610     251.668
  C      246.291    -280.361     252.518
  N      245.093    -279.906     252.960
  C      246.803    -281.657     252.996
  C      247.994    -282.034     252.504
  O      253.372    -287.281     251.528
  O      254.847    -285.202     251.742
  H      252.087    -280.987     249.788
  H      253.702    -287.215     250.616
  H      246.245    -282.246     253.708
  H      248.447    -282.979     252.802
  H      249.858    -281.709     249.968
  H      250.683    -279.689     251.885
  H      251.621    -281.279     253.373
  H      252.369    -282.970     250.934
  H      244.773    -279.015     252.610
  H      253.169    -283.584     253.323
  H      244.517    -280.408     253.626
  H      251.478    -283.909     253.706
  P      254.312    -281.409     253.454
  C      255.962    -282.438     251.763
  O      255.150    -282.673     252.896
  O      253.303    -282.124     254.473
  O      255.107    -280.330     254.102
  H      253.765    -282.340     255.308
  H      256.626    -283.300     251.616
  H      256.587    -281.542     251.918
  H      255.345    -282.317     250.868
  H      253.160    -287.458     255.440
  H      252.676    -288.074     253.878
  H      251.978    -286.593     254.488

 3  4  5  6  7  8  9  10  11  12  13  21  23  27  28  29  30  32 0
 6-311+G(2d,p)
 ****
 34  35 0
 6-311+G(2d,p)
 ****
 1  2  14  15  16  17  18  19  20  22  24  25  26 0
 3-21G
 ****
 31  33  36  37  38  39  40  41  42  43  44  45  46 0
 3-21G
 ****


