%nproc=1
%NoSave
%Mem=1900MB
#P OB98/GEN NMR

erre ene a

0 1
  C     1384.977     801.301     601.174
  O     1384.862     801.830     599.838
  P     1385.740     803.157     599.523
  C     1386.747     801.575     597.685
  O     1386.953     802.646     598.601
  C     1387.417     801.887     596.359
  O     1386.891     803.119     595.798
  C     1388.930     802.110     596.458
  O     1389.608     800.856     596.629
  C     1389.196     802.823     595.126
  O     1389.278     801.857     594.056
  C     1387.925     803.682     594.959
  N     1388.175     805.083     595.289
  C     1388.959     805.802     594.407
  O     1389.456     805.295     593.378
  N     1389.167     807.104     594.698
  C     1388.701     807.785     595.812
  O     1388.909     808.952     595.998
  C     1387.908     806.970     596.727
  C     1387.678     805.674     596.439
  O     1386.407     803.457     600.932
  O     1384.917     804.272     598.959
  H     1386.607     802.655     601.434
  H     1389.920     801.173     594.358
  H     1389.719     807.653     594.010
  H     1387.556     807.431     597.635
  H     1387.129     805.055     597.142
  H     1387.556     803.628     593.952
  H     1390.130     803.370     595.140
  H     1389.137     802.775     597.281
  H     1387.190     801.082     595.655
  H     1385.673     801.405     597.541
  H     1387.147     800.651     598.142
  P     1390.799     800.832     597.680
  C     1388.875     800.148     599.307
  O     1390.105     800.778     599.137
  O     1391.363     802.337     597.591
  O     1391.821     799.746     597.432
  H     1390.644     802.996     597.544
  H     1388.720     799.919     600.374
  H     1388.814     799.205     598.743
  H     1388.042     800.811     598.984
  H     1384.359     800.432     601.268
  H     1384.661     802.041     601.879
  H     1385.996     801.037     601.366

 3  4  5  6  7  8  9  10  11  12  13  24  28  29  30  31  32 0
 6-311+G(2d,p)
 ****
 33  34 0
 6-311+G(2d,p)
 ****
 1  2  14  15  16  17  18  19  20  21  22  23  25  26  27 0
 3-21G
 ****
 35  36  37  38  39  40  41  42  43  44  45 0
 3-21G
 ****


