%nproc=1
%NoSave
%Mem=1900MB
#P OB98/GEN NMR

erre ene a

0 1
  C      -68.997      24.681     198.156
  O      -67.714      24.206     198.500
  H      -69.536      24.925     199.075
  H      -69.557      23.915     197.616
  H      -68.918      25.586     197.547
  P      -66.734      23.716     197.331
  C      -68.314      21.840     196.528
  O      -67.658      23.059     196.196
  C      -68.746      21.107     195.252
  O      -69.020      19.729     195.606
  C      -70.015      21.708     194.631
  O      -69.859      22.029     193.251
  C      -71.097      20.707     195.016
  O      -72.205      20.681     194.141
  C      -70.330      19.386     195.119
  N      -70.963      18.402     195.995
  C      -71.593      17.318     195.389
  O      -71.646      17.118     194.178
  N      -72.182      16.423     196.245
  C      -72.215      16.510     197.605
  O      -72.756      15.675     198.318
  C      -71.558      17.692     198.184
  C      -70.973      18.570     197.366
  O      -65.584      22.870     197.765
  O      -66.237      25.075     196.646
  H      -71.851      20.648     193.227
  H      -65.315      25.255     196.913
  H      -72.627      15.626     195.819
  H      -71.577      17.800     199.259
  H      -70.477      19.452     197.759
  H      -70.218      18.928     194.135
  H      -71.479      20.975     196.009
  H      -70.251      22.676     195.088
  H      -67.909      21.107     194.545
  H      -69.188      22.085     197.140
  H      -67.637      21.205     197.109
  P      -69.574      23.487     192.675
  C      -71.853      24.652     193.275
  O      -70.453      24.541     193.494
  O      -69.583      23.615     191.189
  O      -68.075      23.809     193.178
  H      -67.671      24.377     192.491
  H      -72.255      25.408     193.916
  H      -72.323      23.715     193.490
  H      -72.034      24.916     192.254

 6  7  8  9  10  11  12  13  14  15  16  26  31  32  33  34  35 0
 6-311+G(2d,p)
 ****
 36  37 0
 6-311+G(2d,p)
 ****
 1  2  3  4  5  17  18  19  20  21  22  23  24  25 0
 3-21G
 ****
 27  28  29  30  38  39  40  41  42  43  44  45 0
 3-21G
 ****


