%nproc=1
%NoSave
%Mem=1900MB
#P OB98/GEN NMR

erre ene a

0 1
  C      225.530     875.589    -296.936
  O      226.207     874.552    -297.676
  P      227.787     874.410    -297.437
  C      229.562     872.574    -297.902
  O      228.269     873.093    -298.207
  C      229.558     871.029    -298.039
  O      228.767     870.427    -297.000
  C      228.976     870.531    -299.342
  O      229.904     870.622    -300.416
  C      228.702     869.060    -298.991
  O      229.910     868.287    -299.140
  C      228.298     869.138    -297.518
  N      224.634     868.256    -294.114
  C      226.008     868.235    -293.971
  N      226.470     867.986    -292.737
  N      226.864     868.458    -294.945
  C      226.236     868.751    -296.125
  C      224.890     868.799    -296.400
  C      223.972     868.509    -295.318
  O      222.745     868.469    -295.400
  N      224.651     869.114    -297.704
  C      225.855     869.298    -298.217
  N      226.852     869.081    -297.298
  O      227.890     874.011    -295.890
  O      228.559     875.659    -297.745
  H      230.519     868.571    -298.436
  H      228.748     874.295    -295.528
  H      224.030     868.062    -293.337
  H      226.063     869.604    -299.246
  H      228.760     868.355    -296.919
  H      227.940     868.602    -299.649
  H      225.887     867.866    -291.924
  H      228.028     871.038    -299.582
  H      227.483     867.995    -292.597
  H      230.597     870.688    -297.923
  H      229.838     872.832    -296.871
  H      230.305     873.026    -298.564
  P      229.708     871.831    -301.459
  C      231.550     872.932    -302.932
  O      230.951     871.737    -302.475
  O      230.004     873.126    -300.571
  O      228.341     871.884    -302.089
  H      229.517     873.899    -300.925
  H      231.652     873.665    -302.124
  H      230.931     873.354    -303.732
  H      232.520     872.719    -303.334
  H      224.489     875.581    -297.182
  H      225.949     876.540    -297.190
  H      225.651     875.415    -295.887

 3  4  5  6  7  8  9  10  11  12  23  26  30  31  33  0
 6-311+G(2d,p)
 ****
 35  36  37  38 0
 6-311+G(2d,p)
 ****
 1  2  13  14  15  16  17  18  19  20  21  22  24  25  27  28  29 0
 3-21G
 ****
 32  34  39  40  41  42  43  44  45  46  47  48  49 0
 3-21G
 ****


