%nproc=1
%NoSave
%Mem=1900MB
#P OB98/GEN NMR

erre ene a

0 1
  C     1388.716      98.411      58.869
  O     1389.213      98.440      60.199
  H     1389.268      99.154      58.277
  H     1387.656      98.672      58.865
  H     1388.875      97.424      58.437
  P     1388.508      97.444      61.246
  C     1386.048      96.779      61.658
  O     1386.938      97.623      60.963
  C     1384.636      96.882      61.086
  O     1384.620      96.438      59.713
  C     1383.584      96.058      61.816
  O     1383.107      96.755      62.953
  C     1382.505      95.933      60.741
  O     1381.718      97.141      60.720
  C     1383.334      95.832      59.446
  N     1381.155      91.688      57.328
  C     1380.619      92.806      57.861
  N     1381.248      93.846      58.458
  C     1382.583      93.648      58.461
  C     1383.270      92.561      57.954
  C     1382.513      91.546      57.364
  N     1383.061      90.403      56.827
  N     1384.637      92.686      58.162
  C     1384.772      93.878      58.713
  N     1383.550      94.487      58.948
  O     1388.947      97.589      62.665
  O     1388.819      96.027      60.575
  H     1381.376      97.257      61.640
  H     1388.710      96.071      59.608
  H     1379.536      92.895      57.787
  H     1385.715      94.358      58.935
  H     1382.879      96.398      58.624
  H     1381.821      95.107      60.927
  H     1383.954      95.052      62.065
  H     1384.354      97.955      61.080
  H     1386.024      97.033      62.732
  H     1382.426      89.654      56.588
  H     1384.053      90.231      56.982
  H     1386.417      95.752      61.560
  P     1382.066      96.069      63.972
  C     1379.898      94.728      63.637
  O     1380.814      95.650      63.059
  O     1381.747      96.890      65.176
  O     1382.748      94.652      64.331
  H     1382.312      94.293      65.132
  H     1379.111      94.524      62.942
  H     1379.485      95.148      64.530
  H     1380.409      93.818      63.874

 6  7  8  9  10  11  12  13  14  15  25  28  32  33  34  35 0
 6-311+G(2d,p)
 ****
 36  39  40 0
 6-311+G(2d,p)
 ****
 1  2  3  4  5  16  17  18  19  20  21  22  23  24 0
 3-21G
 ****
 26  27  29  30  31  37  38  41  42  43  44  45  46  47 0
 3-21G
 ****
 48 0
 3-21G
 ****


