%nproc=1
%NoSave
%Mem=1900MB
#P OB98/GEN NMR

erre ene a

0 1
  C      -60.823    -148.662     170.873
  O      -61.518    -147.454     170.635
  H      -61.149    -149.070     171.835
  H      -59.745    -148.483     170.918
  H      -61.046    -149.393     170.091
  P      -61.210    -146.657     169.280
  C      -60.423    -144.593     170.616
  O      -60.082    -145.579     169.652
  C      -59.274    -144.405     171.601
  O      -59.293    -145.442     172.600
  C      -57.890    -144.449     170.953
  O      -57.578    -143.200     170.362
  C      -57.031    -144.771     172.165
  O      -56.855    -143.585     172.964
  C      -57.913    -145.787     172.909
  N      -58.307    -150.619     174.389
  C      -58.582    -149.454     175.079
  N      -58.976    -149.601     176.363
  N      -58.459    -148.258     174.565
  C      -57.988    -148.267     173.299
  C      -57.665    -149.354     172.516
  C      -57.857    -150.675     173.075
  O      -57.644    -151.733     172.493
  N      -57.155    -148.967     171.304
  C      -57.208    -147.649     171.337
  N      -57.692    -147.174     172.534
  O      -62.394    -146.072     168.570
  O      -60.426    -147.716     168.374
  H      -56.488    -142.902     172.373
  H      -61.038    -148.207     167.795
  H      -58.403    -151.511     174.846
  H      -56.910    -146.995     170.526
  H      -57.794    -145.724     173.997
  H      -56.039    -145.138     171.903
  H      -58.811    -150.456     176.879
  H      -57.803    -145.273     170.238
  H      -59.134    -148.758     176.902
  H      -59.431    -143.451     172.122
  H      -61.322    -144.937     171.139
  H      -60.645    -143.639     170.124
  P      -57.365    -143.064     168.775
  C      -54.870    -143.249     169.422
  O      -55.889    -143.627     168.506
  O      -57.622    -141.702     168.224
  O      -58.290    -144.202     168.148
  H      -59.217    -143.907     167.971
  H      -53.942    -143.692     169.126
  H      -55.129    -143.587     170.403
  H      -54.772    -142.184     169.426

 6  7  8  9  10  11  12  13  14  15  26  29  33  34 0
 6-311+G(2d,p)
 ****
 36  38  39  40  41 0
 6-311+G(2d,p)
 ****
 1  2  3  4  5  16  17  18  19  20  21  22  23  24  25 0
 3-21G
 ****
 27  28  30  31  32  35  37  42  43  44  45  46  47 0
 3-21G
 ****
 48  49 0
 3-21G
 ****


