%nproc=1
%NoSave
%Mem=1900MB
#P OB98/GEN NMR

erre ene a

0 1
  C       16.676     496.849     621.211
  O       17.754     496.633     622.129
  P       17.436     496.694     623.700
  C       18.273     494.327     624.312
  O       18.475     495.730     624.465
  C       19.536     493.555     624.725
  O       20.553     493.724     623.697
  C       20.194     494.031     626.030
  O       19.757     493.445     627.259
  C       21.634     493.579     625.817
  O       21.772     492.188     626.182
  C       21.848     493.740     624.316
  N       26.371     496.134     624.376
  C       25.997     494.914     624.789
  N       24.772     494.348     624.737
  C       23.886     495.190     624.182
  C       24.121     496.469     623.708
  C       25.439     496.949     623.824
  N       25.816     498.213     623.416
  N       22.959     497.030     623.215
  C       22.034     496.105     623.399
  N       22.550     494.968     623.969
  O       16.004     496.534     624.086
  O       17.976     498.155     624.101
  H       22.684     491.934     625.952
  H       17.377     498.536     624.771
  H       26.783     494.297     625.221
  H       20.992     496.220     623.139
  H       22.429     492.916     623.886
  H       22.337     494.135     626.450
  H       20.153     495.124     626.109
  H       19.296     492.482     624.800
  H       18.029     494.098     623.273
  H       26.769     498.495     623.574
  H       25.116     498.844     623.061
  H       17.401     494.055     624.905
  P       20.335     493.940     628.670
  C       18.088     494.494     629.893
  O       19.181     493.620     629.741
  O       20.836     495.345     628.688
  O       21.441     492.836     628.996
  H       21.091     491.953     629.183
  H       17.322     494.011     630.495
  H       17.651     494.750     628.926
  H       18.410     495.406     630.405
  H       17.042     496.778     620.208
  H       16.261     497.822     621.371
  H       15.920     496.109     621.368

 3  4  5  6  7  8  9  10  11  12  22  25  29  30  31  32 0
 6-311+G(2d,p)
 ****
 33  36  37 0
 6-311+G(2d,p)
 ****
 1  2  13  14  15  16  17  18  19  20  21  23  24  26 0
 3-21G
 ****
 27  28  34  35  38  39  40  41  42  43  44  45  46  47  48 0
 3-21G
 ****


