%nproc=1
%NoSave
%Mem=1900MB
#P OB98/GEN NMR

erre ene a

0 1
  C     -127.114     -28.656      44.756
  O     -126.889     -28.302      46.105
  H     -127.963     -29.344      44.711
  H     -126.234     -29.156      44.343
  H     -127.348     -27.766      44.168
  P     -125.641     -27.339      46.404
  C     -123.671     -28.971      45.949
  O     -124.448     -28.279      46.918
  C     -122.660     -29.869      46.651
  O     -121.849     -30.556      45.671
  C     -121.676     -29.122      47.540
  O     -122.245     -28.759      48.786
  C     -120.569     -30.155      47.675
  O     -120.857     -31.104      48.714
  C     -120.574     -30.832      46.287
  N     -119.457     -30.394      45.457
  C     -118.705     -31.408      44.872
  O     -118.946     -32.605      45.033
  N     -117.634     -31.002      44.123
  C     -117.231     -29.713      43.938
  O     -116.218     -29.420      43.315
  C     -118.073     -28.681      44.567
  C     -119.126     -29.063      45.295
  O     -126.099     -26.550      47.719
  O     -125.276     -26.415      45.290
  H     -126.388     -25.649      47.482
  H     -121.792     -31.361      48.596
  H     -117.071     -31.723      43.701
  H     -117.784     -27.646      44.434
  H     -119.750     -28.322      45.784
  H     -120.506     -31.922      46.395
  H     -119.616     -29.689      47.928
  H     -121.278     -28.245      47.014
  H     -123.210     -30.624      47.231
  H     -123.135     -28.246      45.326
  H     -124.339     -29.557      45.310
  P     -122.048     -27.256      49.309
  C     -119.566     -27.388      50.162
  O     -120.946     -27.318      50.473
  O     -123.424     -27.017      50.087
  O     -121.759     -26.276      48.224
  H     -123.750     -27.815      50.537
  H     -118.997     -27.421      51.068
  H     -119.284     -26.525      49.595
  H     -119.374     -28.270      49.588

 6  7  8  9  10  11  12  13  14  15  16  27  31  32  33  34  35 0
 6-311+G(2d,p)
 ****
 36  37 0
 6-311+G(2d,p)
 ****
 1  2  3  4  5  17  18  19  20  21  22  23  24  25 0
 3-21G
 ****
 26  28  29  30  38  39  40  41  42  43  44  45 0
 3-21G
 ****


