%nproc=1
%NoSave
%Mem=1900MB
#P OB98/GEN NMR

erre ene a

0 1
  C      773.296    -674.099     965.544
  O      772.590    -673.144     964.775
  H      772.597    -674.781     966.036
  H      773.952    -674.676     964.885
  H      773.908    -673.591     966.297
  P      771.543    -672.215     965.552
  C      773.224    -670.314     966.089
  O      772.382    -671.334     966.595
  C      773.758    -669.448     967.227
  O      774.652    -670.260     968.024
  C      774.519    -668.186     966.781
  O      773.904    -667.018     967.336
  C      775.906    -668.342     967.393
  O      776.429    -667.123     967.916
  C      775.693    -669.381     968.492
  N      778.961    -670.712     972.163
  C      777.676    -670.323     972.220
  N      776.823    -670.080     971.206
  C      777.426    -670.316     970.021
  C      778.726    -670.749     969.802
  C      779.514    -670.928     970.947
  N      780.850    -671.282     970.889
  N      778.976    -670.871     968.445
  C      777.878    -670.477     967.851
  N      776.909    -670.120     968.766
  O      770.746    -673.248     966.480
  O      770.615    -671.438     964.680
  H      775.748    -666.766     968.517
  H      769.784    -673.099     966.397
  H      777.267    -670.170     973.218
  H      777.724    -670.392     966.789
  H      775.348    -668.919     969.430
  H      776.588    -668.729     966.628
  H      774.574    -668.098     965.687
  H      772.912    -669.173     967.877
  H      772.641    -669.676     965.406
  H      781.374    -671.278     971.747
  H      781.302    -671.331     969.987
  H      774.045    -670.765     965.518
  P      773.622    -665.802     966.323
  C      771.080    -666.289     966.049
  O      772.361    -666.203     965.426
  O      774.851    -665.902     965.291
  O      773.554    -664.464     966.978
  H      775.035    -665.028     964.916
  H      770.347    -666.566     965.320
  H      770.824    -665.339     966.470
  H      771.109    -667.027     966.824

 6  7  8  9  10  11  12  13  14  15  25  28  32  33  34  35 0
 6-311+G(2d,p)
 ****
 36  39  40 0
 6-311+G(2d,p)
 ****
 1  2  3  4  5  16  17  18  19  20  21  22  23  24 0
 3-21G
 ****
 26  27  29  30  31  37  38  41  42  43  44  45  46  47  48 0
 3-21G
 ****


