%nproc=1
%NoSave
%Mem=1900MB
#P OB98/GEN NMR

erre ene a

0 1
  C     -132.795      35.041     583.688
  O     -133.927      35.166     584.555
  P     -133.635      35.129     586.131
  C     -134.708      32.802     586.556
  O     -133.528      33.595     586.582
  C     -134.356      31.324     586.718
  O     -133.942      31.020     588.070
  C     -135.524      30.390     586.439
  O     -135.769      30.282     585.050
  C     -135.023      29.103     587.093
  O     -134.087      28.433     586.229
  C     -134.290      29.640     588.334
  N     -136.879      26.528     591.471
  C     -136.182      26.289     590.338
  N     -135.521      27.177     589.561
  C     -135.616      28.420     590.064
  C     -136.292      28.807     591.204
  C     -136.948      27.797     591.930
  N     -137.673      28.043     593.077
  N     -136.169      30.172     591.400
  C     -135.458      30.597     590.380
  N     -135.093      29.574     589.543
  O     -135.014      35.624     586.773
  O     -132.489      36.000     586.547
  H     -134.599      28.016     585.510
  H     -134.908      36.528     587.139
  H     -136.149      25.256     590.010
  H     -135.184      31.630     590.197
  H     -133.362      29.097     588.534
  H     -135.826      28.393     587.319
  H     -136.425      30.748     586.954
  H     -133.524      31.100     586.037
  H     -135.243      32.953     585.616
  H     -138.177      27.275     593.492
  H     -137.799      28.997     593.383
  H     -135.378      33.142     587.357
  P     -137.128      30.920     584.480
  C     -138.336      28.728     585.069
  O     -138.283      30.129     585.265
  O     -137.201      30.277     583.019
  O     -137.199      32.408     584.543
  H     -137.009      29.327     583.037
  H     -139.133      28.313     585.687
  H     -137.374      28.272     585.361
  H     -138.539      28.503     584.019
  H     -133.120      35.080     582.669
  H     -132.307      34.106     583.871
  H     -132.112      35.843     583.876

 3  4  5  6  7  8  9  10  11  12  22  25  29  30  31  32 0
 6-311+G(2d,p)
 ****
 33  36  37 0
 6-311+G(2d,p)
 ****
 1  2  13  14  15  16  17  18  19  20  21  23  24  26 0
 3-21G
 ****
 27  28  34  35  38  39  40  41  42  43  44  45  46  47  48 0
 3-21G
 ****


