%nproc=1
%NoSave
%Mem=1900MB
#P OB98/GEN NMR

erre ene a

0 1
  C     -194.909    -404.434    -167.754
  O     -195.114    -403.126    -167.215
  P     -196.335    -402.277    -167.828
  C     -197.293    -401.095    -165.716
  O     -197.444    -402.133    -166.677
  C     -196.964    -401.675    -164.342
  O     -195.682    -402.325    -164.347
  C     -196.880    -400.637    -163.232
  O     -198.165    -400.263    -162.763
  C     -196.122    -401.413    -162.162
  O     -197.032    -402.247    -161.424
  C     -195.159    -402.273    -162.996
  N     -190.495    -402.535    -161.028
  C     -191.633    -403.251    -160.709
  N     -191.500    -404.190    -159.747
  N     -192.792    -403.064    -161.281
  C     -192.769    -402.115    -162.246
  C     -191.708    -401.339    -162.654
  C     -190.437    -401.531    -161.989
  O     -189.408    -400.903    -162.210
  N     -192.067    -400.490    -163.667
  C     -193.335    -400.770    -163.896
  N     -193.812    -401.741    -163.049
  O     -197.006    -403.307    -168.855
  O     -195.919    -401.012    -168.495
  H     -197.701    -401.658    -161.024
  H     -197.458    -402.820    -169.569
  H     -189.630    -402.713    -160.551
  H     -193.947    -400.307    -164.658
  H     -195.109    -403.303    -162.627
  H     -195.629    -400.759    -161.436
  H     -190.623    -404.433    -159.316
  H     -196.290    -399.768    -163.550
  H     -192.316    -404.749    -159.525
  H     -197.733    -402.422    -164.096
  H     -198.214    -400.511    -165.654
  H     -196.505    -400.413    -166.052
  P     -198.896    -399.050    -163.517
  C     -201.137    -400.169    -164.198
  O     -199.853    -399.736    -164.602
  O     -197.721    -398.403    -164.389
  O     -199.536    -398.052    -162.611
  H     -197.889    -397.454    -164.530
  H     -201.620    -399.428    -163.554
  H     -201.052    -401.121    -163.663
  H     -201.756    -400.317    -165.085
  H     -194.074    -404.893    -167.268
  H     -194.715    -404.361    -168.804
  H     -195.785    -405.027    -167.594

 3  4  5  6  7  8  9  10  11  12  23  26  30  31  33  0
 6-311+G(2d,p)
 ****
 35  36  37  38 0
 6-311+G(2d,p)
 ****
 1  2  13  14  15  16  17  18  19  20  21  22  24  25  27  28  29 0
 3-21G
 ****
 32  34  39  40  41  42  43  44  45  46  47  48  49 0
 3-21G
 ****


