%nproc=1
%NoSave
%Mem=1900MB
#P OB98/GEN NMR

erre ene a

0 1
  C      362.006    -624.412     351.152
  O      362.997    -624.342     352.155
  P      364.495    -624.841     351.844
  C      364.536    -625.671     354.282
  O      364.879    -625.960     352.930
  C      364.331    -626.958     355.074
  O      363.086    -627.596     354.693
  C      365.400    -628.007     354.829
  O      366.627    -627.681     355.460
  C      364.713    -629.255     355.380
  O      364.822    -629.307     356.806
  C      363.252    -629.011     354.958
  N      362.863    -629.814     353.803
  C      362.028    -630.902     354.061
  O      361.716    -631.188     355.229
  N      361.560    -631.647     353.009
  C      362.001    -631.397     351.805
  N      361.465    -632.123     350.790
  C      363.011    -630.363     351.515
  C      363.379    -629.600     352.542
  O      365.507    -623.755     351.677
  O      364.344    -625.692     350.497
  H      365.015    -625.386     349.854
  H      365.782    -629.332     357.012
  H      363.395    -630.245     350.515
  H      364.100    -628.800     352.421
  H      362.571    -629.243     355.786
  H      365.149    -630.181     354.989
  H      365.563    -628.134     353.750
  H      364.279    -626.707     356.136
  H      360.760    -632.815     351.025
  H      363.620    -625.084     354.290
  H      361.480    -631.802     349.824
  H      365.339    -625.065     354.732
  P      367.945    -627.734     354.546
  C      369.177    -628.646     356.635
  O      368.963    -628.760     355.241
  O      368.623    -626.298     354.797
  O      367.691    -627.977     353.095
  H      369.039    -625.984     353.963
  H      369.597    -629.593     357.000
  H      368.248    -628.442     357.167
  H      369.899    -627.845     356.834
  H      361.080    -624.039     351.538
  H      361.881    -625.429     350.845
  H      362.306    -623.820     350.312

 3  4  5  6  7  8  9  10  11  12  13  24  27  28  29  30  32 0
 6-311+G(2d,p)
 ****
 34  35 0
 6-311+G(2d,p)
 ****
 1  2  14  15  16  17  18  19  20  21  22  23  25  26 0
 3-21G
 ****
 31  33  36  37  38  39  40  41  42  43  44  45  46 0
 3-21G
 ****


