%nproc=1
%NoSave
%Mem=1900MB
#P OB98/GEN NMR

erre ene a

0 1
  C       47.800      20.724    -120.408
  O       49.035      20.409    -121.019
  P       49.185      20.376    -122.611
  C       49.456      17.828    -122.557
  O       48.747      18.921    -123.123
  C       48.884      16.490    -123.024
  O       47.519      16.358    -122.550
  C       48.872      16.312    -124.549
  O       49.189      14.942    -124.819
  C       47.430      16.609    -124.915
  O       47.059      16.037    -126.164
  C       46.701      16.038    -123.693
  N       45.355      16.569    -123.549
  C       44.305      15.756    -123.981
  O       44.542      14.704    -124.576
  N       43.017      16.165    -123.740
  C       42.801      17.362    -123.285
  N       41.517      17.703    -122.996
  C       43.886      18.340    -123.055
  C       45.125      17.869    -123.162
  O       50.506      20.843    -123.133
  O       47.999      21.315    -123.139
  H       48.371      21.992    -123.738
  H       47.671      16.366    -126.856
  H       43.650      19.362    -122.798
  H       45.988      18.501    -122.986
  H       46.646      14.943    -123.754
  H       47.281      17.692    -124.980
  H       49.593      16.959    -125.057
  H       49.470      15.688    -122.559
  H       40.807      16.994    -123.129
  H       49.369      17.891    -121.469
  H       41.290      18.465    -122.358
  H       50.521      17.903    -122.810
  P       49.362      14.489    -126.351
  C       47.026      13.366    -126.477
  O       47.899      14.349    -126.991
  O       49.800      12.951    -126.183
  O       50.387      15.222    -127.153
  H       50.307      12.678    -126.970
  H       46.107      13.369    -127.071
  H       46.767      13.592    -125.439
  H       47.480      12.375    -126.540
  H       47.910      20.692    -119.344
  H       47.060      20.013    -120.712
  H       47.495      21.705    -120.706

 3  4  5  6  7  8  9  10  11  12  13  24  27  28  29  30  32 0
 6-311+G(2d,p)
 ****
 34  35 0
 6-311+G(2d,p)
 ****
 1  2  14  15  16  17  18  19  20  21  22  23  25  26 0
 3-21G
 ****
 31  33  36  37  38  39  40  41  42  43  44  45  46 0
 3-21G
 ****


