%nproc=1
%NoSave
%Mem=1900MB
#P OB98/GEN NMR

erre ene a

0 1
  C      -80.408     117.990     155.662
  O      -80.184     116.963     154.700
  P      -80.529     117.070     153.148
  C      -82.929     115.999     153.238
  O      -82.117     117.136     152.980
  C      -84.255     116.080     152.469
  O      -85.037     114.881     152.756
  C      -85.106     117.286     152.887
  O      -85.726     117.953     151.794
  C      -86.019     116.702     153.952
  O      -87.182     117.479     154.188
  C      -86.251     115.286     153.428
  N      -89.556     113.975     157.091
  C      -89.496     115.132     156.341
  N      -90.424     116.075     156.604
  N      -88.593     115.353     155.423
  C      -87.679     114.366     155.313
  C      -87.623     113.181     156.011
  C      -88.656     112.922     156.990
  O      -88.768     111.907     157.669
  N      -86.551     112.420     155.617
  C      -85.950     113.150     154.701
  N      -86.602     114.341     154.474
  O      -79.796     116.129     152.251
  O      -80.068     118.566     152.757
  H      -87.756     117.402     153.404
  H      -79.770     118.527     151.827
  H      -90.287     113.848     157.770
  H      -85.054     112.865     154.162
  H      -87.066     115.243     152.704
  H      -85.455     116.674     154.893
  H      -91.068     116.021     157.378
  H      -84.481     118.063     153.340
  H      -90.241     116.999     156.211
  H      -84.039     116.094     151.394
  H      -83.122     116.007     154.316
  H      -82.391     115.079     153.005
  P      -85.499     119.447     151.278
  C      -87.697     120.341     152.251
  O      -86.285     120.446     152.251
  O      -86.332     119.546     149.916
  O      -84.072     119.814     151.038
  H      -85.727     119.740     149.173
  H      -88.116     121.227     152.733
  H      -87.999     119.454     152.817
  H      -88.081     120.276     151.230
  H      -80.086     117.653     156.625
  H      -81.451     118.224     155.697
  H      -79.855     118.864     155.386

 3  4  5  6  7  8  9  10  11  12  23  26  30  31 0
 6-311+G(2d,p)
 ****
 33  35  36  37  38 0
 6-311+G(2d,p)
 ****
 1  2  13  14  15  16  17  18  19  20  21  22  24  25 0
 3-21G
 ****
 27  28  29  32  34  39  40  41  42  43  44  45  46  47  48  49 0
 3-21G
 ****


