%nproc=1
%NoSave
%Mem=1900MB
#P OB98/GEN NMR

erre ene a

0 1
  C     -535.703      77.684     -78.370
  O     -536.057      78.388     -79.548
  H     -535.257      76.729     -78.659
  H     -536.594      77.491     -77.770
  H     -534.977      78.254     -77.792
  P     -536.752      79.823     -79.338
  C     -538.767      80.579     -77.886
  O     -538.169      79.528     -78.625
  C     -540.286      80.485     -77.964
  O     -540.721      79.150     -77.663
  C     -541.025      81.412     -77.002
  O     -541.130      82.726     -77.541
  C     -542.373      80.722     -76.899
  O     -543.224      81.036     -78.026
  C     -541.971      79.232     -76.908
  N     -544.318      77.852     -72.657
  C     -544.837      78.338     -73.840
  N     -546.171      78.533     -73.886
  N     -544.106      78.621     -74.884
  C     -542.781      78.401     -74.693
  C     -542.158      77.908     -73.564
  C     -542.972      77.581     -72.425
  O     -542.590      77.074     -71.374
  N     -540.798      77.816     -73.759
  C     -540.603      78.289     -74.977
  N     -541.770      78.669     -75.578
  O     -537.181      80.249     -80.826
  O     -535.906      80.856     -78.689
  H     -543.403      81.986     -78.024
  H     -537.147      81.215     -80.898
  H     -544.940      77.642     -71.896
  H     -539.643      78.376     -75.467
  H     -542.705      78.610     -77.413
  H     -542.916      81.032     -75.999
  H     -546.715      78.660     -73.041
  H     -540.530      81.435     -76.019
  H     -546.553      78.920     -74.740
  H     -540.569      80.709     -78.996
  H     -538.432      81.539     -78.297
  H     -538.431      80.517     -76.841
  P     -541.360      83.943     -76.500
  C     -543.191      84.550     -74.768
  O     -542.753      83.656     -75.784
  O     -541.689      85.183     -77.466
  O     -540.202      84.218     -75.597
  H     -541.578      86.016     -76.968
  H     -544.136      84.223     -74.388
  H     -543.292      85.533     -75.177
  H     -542.474      84.566     -73.974

 6  7  8  9  10  11  12  13  14  15  26  29  33  34 0
 6-311+G(2d,p)
 ****
 36  38  39  40  41 0
 6-311+G(2d,p)
 ****
 1  2  3  4  5  16  17  18  19  20  21  22  23  24  25 0
 3-21G
 ****
 27  28  30  31  32  35  37  42  43  44  45  46  47 0
 3-21G
 ****
 48  49 0
 3-21G
 ****


