%nproc=1
%NoSave
%Mem=1900MB
#P OB98/GEN NMR

erre ene a

0 1
  C      -78.515     -65.552    -212.784
  O      -77.644     -66.266    -213.652
  P      -77.236     -65.559    -215.039
  C      -78.557     -64.298    -216.891
  O      -78.618     -65.078    -215.699
  C      -79.620     -64.753    -217.885
  O      -79.262     -66.035    -218.444
  C      -81.006     -64.938    -217.289
  O      -81.711     -63.711    -217.180
  C      -81.653     -65.830    -218.337
  O      -82.074     -65.035    -219.465
  C      -80.493     -66.747    -218.739
  N      -83.322     -70.832    -217.516
  C      -83.627     -69.690    -218.176
  N      -82.819     -68.645    -218.452
  C      -81.591     -68.843    -217.937
  C      -81.150     -69.938    -217.212
  C      -82.072     -70.973    -217.013
  N      -81.756     -72.152    -216.368
  N      -79.830     -69.779    -216.850
  C      -79.477     -68.615    -217.356
  N      -80.502     -68.012    -218.030
  O      -76.799     -66.797    -215.956
  O      -76.165     -64.529    -214.933
  H      -82.566     -64.271    -219.103
  H      -76.203     -66.492    -216.667
  H      -84.648     -69.611    -218.534
  H      -78.493     -68.174    -217.268
  H      -80.489     -66.970    -219.811
  H      -82.543     -66.349    -217.963
  H      -80.960     -65.471    -216.332
  H      -79.647     -64.024    -218.708
  H      -77.566     -64.417    -217.343
  H      -82.410     -72.917    -216.427
  H      -80.779     -72.339    -216.173
  H      -78.701     -63.242    -216.633
  P      -82.491     -63.446    -215.801
  C      -84.415     -64.686    -214.564
  O      -83.641     -64.560    -215.742
  O      -83.285     -62.086    -216.089
  O      -81.604     -63.344    -214.604
  H      -83.464     -61.612    -215.253
  H      -85.322     -65.249    -214.798
  H      -84.705     -63.702    -214.176
  H      -83.846     -65.229    -213.801
  H      -78.701     -66.135    -211.906
  H      -79.440     -65.359    -213.286
  H      -78.060     -64.624    -212.506

 3  4  5  6  7  8  9  10  11  12  22  25  29  30  31  32 0
 6-311+G(2d,p)
 ****
 33  36  37 0
 6-311+G(2d,p)
 ****
 1  2  13  14  15  16  17  18  19  20  21  23  24  26 0
 3-21G
 ****
 27  28  34  35  38  39  40  41  42  43  44  45  46  47  48 0
 3-21G
 ****


