%nproc=1
%NoSave
%Mem=1900MB
#P OB98/GEN NMR

erre ene a

0 1
  C     -161.106     411.231     216.312
  O     -161.563     412.447     215.759
  P     -160.754     413.206     214.600
  C     -161.355     411.543     212.727
  O     -160.319     412.062     213.550
  C     -161.226     412.048     211.287
  O     -159.879     411.798     210.799
  C     -162.208     411.405     210.297
  O     -162.533     412.416     209.337
  C     -161.361     410.320     209.657
  O     -161.889     409.869     208.412
  C     -160.002     411.024     209.581
  N     -158.901     410.078     209.423
  C     -158.351     409.957     208.143
  O     -158.848     410.580     207.198
  N     -157.295     409.104     207.945
  C     -156.892     408.353     208.927
  N     -155.840     407.530     208.679
  C     -157.528     408.354     210.262
  C     -158.500     409.239     210.437
  O     -159.638     414.077     215.073
  O     -161.892     413.995     213.798
  H     -161.156     409.464     207.897
  H     -162.164     414.808     214.303
  H     -157.193     407.670     211.025
  H     -159.025     409.312     211.386
  H     -159.973     411.729     208.739
  H     -161.304     409.453     210.328
  H     -163.112     411.011     210.766
  H     -161.369     413.135     211.297
  H     -155.425     407.574     207.753
  H     -162.313     411.879     213.132
  H     -155.395     406.969     209.387
  H     -161.341     410.450     212.756
  P     -163.829     412.295     208.399
  C     -165.368     413.886     209.684
  O     -165.105     412.539     209.331
  O     -163.890     411.054     207.564
  O     -163.790     413.614     207.488
  H     -164.388     413.497     206.726
  H     -166.394     413.962     210.070
  H     -165.266     414.541     208.819
  H     -164.670     414.201     210.470
  H     -161.792     410.901     217.064
  H     -160.141     411.379     216.749
  H     -161.039     410.492     215.541

 3  4  5  6  7  8  9  10  11  12  13  23  27  28  29  30  32 0
 6-311+G(2d,p)
 ****
 34  35 0
 6-311+G(2d,p)
 ****
 1  2  14  15  16  17  18  19  20  21  22  24  25  26 0
 3-21G
 ****
 31  33  36  37  38  39  40  41  42  43  44  45  46 0
 3-21G
 ****


