%nproc=1
%NoSave
%Mem=1900MB
#P OB98/GEN NMR

erre ene a

0 1
  C      380.390     595.375     288.133
  O      380.650     596.523     287.352
  H      380.421     595.657     289.186
  H      381.150     594.616     287.945
  H      379.396     594.976     287.903
  P      380.466     596.370     285.761
  C      382.113     595.732     283.813
  O      381.909     595.942     285.202
  C      383.402     594.938     283.579
  O      384.512     595.664     284.152
  C      383.392     593.533     284.198
  O      384.078     592.643     283.320
  C      384.178     593.713     285.488
  O      384.740     592.479     285.938
  C      385.187     594.792     285.078
  N      385.702     595.533     286.229
  C      387.004     595.228     286.641
  O      387.652     594.351     286.064
  N      387.527     595.887     287.731
  C      386.788     596.729     288.393
  N      387.355     597.324     289.474
  C      385.396     597.038     288.022
  C      384.925     596.421     286.937
  O      380.318     597.898     285.304
  O      379.336     595.485     285.355
  H      385.271     592.659     286.741
  H      380.931     598.501     285.757
  H      384.812     597.727     288.618
  H      383.908     596.602     286.594
  H      386.043     594.339     284.549
  H      383.516     594.087     286.282
  H      382.383     593.160     284.395
  H      383.586     594.887     282.494
  H      388.303     597.060     289.709
  H      382.174     596.690     283.287
  H      386.858     597.949     290.086
  H      381.249     595.182     283.426
  P      383.260     591.456     282.621
  C      382.687     588.978     283.083
  O      383.286     590.167     283.587
  O      383.603     591.177     281.187
  O      381.734     591.937     282.747
  H      381.266     591.694     281.917
  H      382.769     588.200     283.813
  H      383.188     588.679     282.186
  H      381.654     589.161     282.871

 6  7  8  9  10  11  12  13  14  15  16  26  30  31  32  33  35 0
 6-311+G(2d,p)
 ****
 37  38 0
 6-311+G(2d,p)
 ****
 1  2  3  4  5  17  18  19  20  21  22  23  24  25 0
 3-21G
 ****
 27  28  29  34  36  39  40  41  42  43  44  45  46 0
 3-21G
 ****


