%nproc=1
%NoSave
%Mem=1900MB
#P OB98/GEN NMR

erre ene a

0 1
  C      -68.190    -427.852     -86.117
  O      -67.257    -427.254     -86.989
  H      -67.705    -428.626     -85.515
  H      -68.594    -427.086     -85.449
  H      -69.014    -428.290     -86.688
  P      -66.472    -428.243     -87.980
  C      -65.551    -426.088     -89.090
  O      -65.261    -427.392     -88.609
  C      -64.608    -425.729     -90.237
  O      -64.611    -426.779     -91.229
  C      -64.973    -424.459     -90.989
  O      -64.570    -423.287     -90.286
  C      -64.169    -424.652     -92.271
  O      -62.800    -424.279     -92.041
  C      -64.272    -426.162     -92.502
  N      -65.072    -427.913     -97.260
  C      -63.935    -427.643     -96.582
  N      -63.795    -427.172     -95.322
  C      -65.000    -426.990     -94.749
  C      -66.240    -427.222     -95.324
  C      -66.250    -427.695     -96.644
  N      -67.418    -427.959     -97.334
  N      -67.250    -426.933     -94.430
  C      -66.637    -426.530     -93.331
  N      -65.264    -426.545     -93.483
  O      -67.481    -428.414     -89.215
  O      -66.095    -429.561     -87.397
  H      -62.327    -424.422     -92.887
  H      -67.413    -429.323     -89.558
  H      -63.005    -427.841     -97.113
  H      -67.128    -426.235     -92.419
  H      -63.306    -426.585     -92.809
  H      -64.543    -424.043     -93.100
  H      -66.045    -424.435     -91.230
  H      -63.592    -425.660     -89.828
  H      -65.415    -425.362     -88.278
  H      -67.363    -428.476     -98.198
  H      -68.301    -427.787     -96.859
  H      -66.590    -426.060     -89.422
  P      -65.632    -422.096     -90.179
  C      -63.739    -420.871     -88.894
  O      -64.770    -420.772     -89.871
  O      -66.376    -422.388     -88.785
  O      -66.605    -421.996     -91.311
  H      -67.267    -421.991     -88.798
  H      -63.252    -419.924     -88.792
  H      -63.026    -421.607     -89.201
  H      -64.164    -421.156     -87.954

 6  7  8  9  10  11  12  13  14  15  25  28  32  33  34  35 0
 6-311+G(2d,p)
 ****
 36  39  40 0
 6-311+G(2d,p)
 ****
 1  2  3  4  5  16  17  18  19  20  21  22  23  24 0
 3-21G
 ****
 26  27  29  30  31  37  38  41  42  43  44  45  46  47  48 0
 3-21G
 ****


