%nproc=1
%NoSave
%Mem=1900MB
#P OB98/GEN NMR

erre ene a

0 1
  C      -52.329    -274.632    -312.472
  O      -51.314    -274.966    -313.426
  P      -50.949    -273.904    -314.567
  C      -48.865    -272.792    -313.558
  O      -50.245    -272.641    -313.883
  C      -48.014    -271.748    -314.297
  O      -48.401    -270.398    -313.933
  C      -46.534    -271.839    -313.976
  O      -45.958    -272.958    -314.623
  C      -46.043    -270.479    -314.435
  O      -45.814    -270.463    -315.855
  C      -47.234    -269.561    -314.080
  N      -47.003    -268.750    -312.886
  C      -46.365    -267.519    -313.098
  O      -46.006    -267.189    -314.227
  N      -46.148    -266.699    -312.016
  C      -46.526    -267.079    -310.840
  N      -46.282    -266.227    -309.802
  C      -47.179    -268.368    -310.582
  C      -47.383    -269.156    -311.637
  O      -52.054    -273.582    -315.524
  O      -49.730    -274.616    -315.337
  H      -46.702    -270.478    -316.279
  H      -49.743    -274.338    -316.277
  H      -47.468    -268.637    -309.568
  H      -47.857    -270.117    -311.527
  H      -47.455    -268.876    -314.907
  H      -45.093    -270.201    -313.960
  H      -46.389    -271.935    -312.888
  H      -48.173    -271.872    -315.374
  H      -45.814    -265.350    -310.019
  H      -48.532    -273.794    -313.832
  H      -46.576    -266.411    -308.848
  H      -48.739    -272.704    -312.467
  P      -44.533    -273.482    -314.098
  C      -45.340    -274.980    -312.134
  O      -44.689    -273.793    -312.529
  O      -43.630    -272.161    -314.125
  O      -43.903    -274.580    -314.900
  H      -42.705    -272.392    -314.342
  H      -45.077    -275.203    -311.092
  H      -45.007    -275.832    -312.757
  H      -46.417    -274.877    -312.217
  H      -52.451    -275.442    -311.783
  H      -53.253    -274.454    -312.982
  H      -52.041    -273.750    -311.939

 3  4  5  6  7  8  9  10  11  12  13  23  27  28  29  30  32 0
 6-311+G(2d,p)
 ****
 34  35 0
 6-311+G(2d,p)
 ****
 1  2  14  15  16  17  18  19  20  21  22  24  25  26 0
 3-21G
 ****
 31  33  36  37  38  39  40  41  42  43  44  45  46 0
 3-21G
 ****


