%nproc=1
%NoSave
%Mem=1900MB
#P OB98/GEN NMR

erre ene a

0 1
  C       93.474    -104.801      43.595
  O       93.749    -103.786      42.650
  H       94.314    -105.501      43.614
  H       92.569    -105.345      43.306
  H       93.347    -104.370      44.592
  P       92.722    -102.560      42.583
  C       91.280    -103.774      40.754
  O       91.329    -103.135      42.024
  C       89.840    -103.823      40.250
  O       89.045    -104.741      41.028
  C       89.097    -102.505      40.377
  O       89.546    -101.532      39.459
  C       87.669    -102.968      40.137
  O       87.413    -103.157      38.738
  C       87.661    -104.326      40.883
  N       86.981    -104.253      42.168
  C       85.594    -104.456      42.136
  O       85.026    -104.689      41.070
  N       84.890    -104.358      43.310
  C       85.511    -104.108      44.419
  N       84.754    -104.015      45.545
  C       86.971    -103.913      44.501
  C       87.636    -103.994      43.349
  O       93.274    -101.708      41.348
  O       92.571    -101.786      43.852
  H       87.137    -102.286      38.390
  H       93.382    -102.227      40.534
  H       87.449    -103.716      45.450
  H       88.709    -103.863      43.320
  H       87.163    -105.094      40.277
  H       86.935    -102.245      40.500
  H       89.161    -102.132      41.409
  H       89.855    -104.177      39.212
  H       83.753    -104.133      45.446
  H       91.707    -104.781      40.807
  H       85.123    -103.791      46.456
  H       91.900    -103.189      40.067
  P       89.471     -99.972      39.821
  C       87.799     -99.580      37.903
  O       88.040     -99.459      39.302
  O       90.629     -99.157      39.356
  O       89.272     -99.973      41.411
  H       88.471    -100.432      41.721
  H       86.821     -99.209      37.676
  H       87.865    -100.609      37.617
  H       88.529     -99.013      37.365

 6  7  8  9  10  11  12  13  14  15  16  26  30  31  32  33  35 0
 6-311+G(2d,p)
 ****
 37  38 0
 6-311+G(2d,p)
 ****
 1  2  3  4  5  17  18  19  20  21  22  23  24  25 0
 3-21G
 ****
 27  28  29  34  36  39  40  41  42  43  44  45  46 0
 3-21G
 ****


