%nproc=1
%NoSave
%Mem=1900MB
#P OB98/GEN NMR

erre ene a

0 1
  C     -735.120    -458.989    -448.352
  O     -735.816    -457.794    -448.076
  H     -735.746    -459.621    -448.990
  H     -734.909    -459.537    -447.423
  H     -734.189    -458.774    -448.881
  P     -735.151    -456.741    -447.058
  C     -737.509    -455.775    -446.608
  O     -736.162    -455.497    -446.958
  C     -738.429    -454.603    -446.992
  O     -737.882    -453.378    -446.431
  C     -738.551    -454.389    -448.514
  O     -739.858    -453.828    -448.760
  C     -737.471    -453.349    -448.758
  O     -737.610    -452.746    -450.024
  C     -737.655    -452.455    -447.522
  N     -736.512    -451.594    -447.290
  C     -736.787    -450.222    -447.130
  O     -737.947    -449.815    -447.216
  N     -735.744    -449.361    -446.920
  C     -734.524    -449.805    -446.924
  N     -733.536    -448.886    -446.727
  C     -734.183    -451.230    -447.132
  C     -735.214    -452.061    -447.299
  O     -733.730    -456.370    -447.330
  O     -735.317    -457.444    -445.625
  H     -738.362    -452.112    -450.026
  H     -734.442    -457.799    -445.337
  H     -733.153    -451.547    -447.148
  H     -735.070    -453.127    -447.465
  H     -738.554    -451.835    -447.619
  H     -736.485    -453.816    -448.747
  H     -738.417    -455.299    -449.099
  H     -739.411    -454.760    -446.529
  H     -733.817    -447.929    -446.591
  H     -737.543    -455.930    -445.525
  H     -732.547    -449.120    -446.727
  H     -737.852    -456.684    -447.108
  P     -740.957    -454.553    -449.663
  C     -741.720    -452.310    -450.687
  O     -742.123    -453.512    -450.032
  O     -741.449    -455.851    -449.096
  O     -740.229    -454.810    -451.083
  H     -740.595    -455.620    -451.481
  H     -742.580    -451.703    -450.879
  H     -741.240    -452.552    -451.613
  H     -741.037    -451.774    -450.061

 6  7  8  9  10  11  12  13  14  15  16  26  30  31  32  33  35 0
 6-311+G(2d,p)
 ****
 37  38 0
 6-311+G(2d,p)
 ****
 1  2  3  4  5  17  18  19  20  21  22  23  24  25 0
 3-21G
 ****
 27  28  29  34  36  39  40  41  42  43  44  45  46 0
 3-21G
 ****


