%nproc=1
%NoSave
%Mem=1900MB
#P OB98/GEN NMR

erre ene a

0 1
  C     1447.949     831.043    2701.910
  O     1446.641     830.657    2701.535
  P     1445.492     830.176    2702.528
  C     1444.032     832.112    2701.444
  O     1444.376     831.358    2702.593
  C     1442.721     832.869    2701.647
  O     1441.622     831.883    2701.700
  C     1442.663     833.659    2702.990
  O     1442.080     834.940    2702.852
  C     1442.000     832.681    2703.939
  O     1441.442     833.315    2705.101
  C     1441.018     831.958    2703.016
  N     1437.814     829.072    2705.777
  C     1437.882     830.435    2705.677
  N     1437.020     831.164    2706.437
  N     1438.736     831.054    2704.956
  C     1439.620     830.258    2704.343
  C     1439.631     828.851    2704.308
  C     1438.638     828.191    2705.086
  O     1438.521     826.968    2705.198
  N     1440.684     828.352    2703.542
  C     1441.263     829.454    2703.070
  N     1440.685     830.618    2703.500
  O     1445.901     829.567    2703.833
  O     1444.723     829.015    2701.650
  H     1440.875     832.606    2705.524
  H     1444.376     828.387    2702.329
  H     1437.079     828.629    2706.377
  H     1442.131     829.413    2702.399
  H     1440.072     832.492    2702.935
  H     1442.768     831.966    2704.298
  H     1436.371     830.733    2707.125
  H     1443.687     833.869    2703.323
  H     1437.253     832.173    2706.561
  H     1442.528     833.531    2700.764
  H     1443.963     831.410    2700.632
  H     1444.856     832.792    2701.181
  P     1442.665     836.401    2703.308
  C     1443.011     837.334    2700.945
  O     1443.671     836.900    2702.136
  O     1443.719     836.050    2704.509
  O     1441.637     837.352    2703.774
  H     1443.418     836.497    2705.287
  H     1443.771     837.405    2700.148
  H     1442.551     838.325    2701.094
  H     1442.268     836.602    2700.622
  H     1448.504     831.317    2701.037
  H     1448.436     830.225    2702.400
  H     1447.897     831.878    2702.577

 3  4  5  6  7  8  9  10  11  12  23  26  30  31 0
 6-311+G(2d,p)
 ****
 33  35  36  37  38 0
 6-311+G(2d,p)
 ****
 1  2  13  14  15  16  17  18  19  20  21  22  24  25 0
 3-21G
 ****
 27  28  29  32  34  39  40  41  42  43  44  45  46  47  48  49 0
 3-21G
 ****


