%nproc=1
%NoSave
%Mem=1900MB
#P OB98/GEN NMR

erre ene a

0 1
  C     -121.405    -285.507     553.513
  O     -122.284    -285.023     552.514
  H     -121.855    -285.327     554.492
  H     -120.452    -284.975     553.457
  H     -121.244    -286.583     553.389
  P     -121.895    -285.352     550.990
  C     -123.090    -286.853     549.201
  O     -122.817    -286.590     550.563
  C     -124.024    -288.057     549.059
  O     -123.399    -289.207     549.687
  C     -125.392    -287.856     549.712
  O     -126.374    -288.522     548.917
  C     -125.255    -288.572     551.045
  O     -126.517    -288.961     551.579
  C     -124.320    -289.733     550.664
  N     -123.620    -290.286     551.823
  C     -124.077    -291.513     552.308
  O     -125.039    -292.072     551.773
  N     -123.473    -292.064     553.408
  C     -122.532    -291.410     554.015
  N     -121.986    -291.994     555.117
  C     -122.043    -290.090     553.567
  C     -122.621    -289.596     552.472
  O     -120.439    -285.998     551.156
  O     -121.943    -284.174     550.073
  H     -126.920    -289.622     550.975
  H     -120.384    -286.641     551.884
  H     -121.265    -289.580     554.113
  H     -122.319    -288.637     552.066
  H     -124.887    -290.541     550.186
  H     -124.769    -287.916     551.776
  H     -125.657    -286.801     549.821
  H     -124.126    -288.295     547.993
  H     -122.364    -292.890     555.406
  H     -122.161    -287.050     548.656
  H     -121.290    -291.556     555.700
  H     -123.553    -285.960     548.768
  P     -127.375    -287.664     548.012
  C     -127.151    -286.292     545.829
  O     -126.715    -287.426     546.567
  O     -127.952    -286.449     548.654
  O     -128.545    -288.715     547.679
  H     -129.397    -288.243     547.733
  H     -126.634    -286.255     544.893
  H     -126.944    -285.402     546.386
  H     -128.204    -286.365     545.652

 6  7  8  9  10  11  12  13  14  15  16  26  30  31  32  33  35 0
 6-311+G(2d,p)
 ****
 37  38 0
 6-311+G(2d,p)
 ****
 1  2  3  4  5  17  18  19  20  21  22  23  24  25 0
 3-21G
 ****
 27  28  29  34  36  39  40  41  42  43  44  45  46 0
 3-21G
 ****


