%nproc=1
%NoSave
%Mem=1900MB
#P OB98/GEN NMR

erre ene a

0 1
  C     -348.153     278.015     106.739
  O     -349.440     278.447     106.361
  H     -348.058     278.096     107.825
  H     -347.392     278.651     106.274
  H     -347.997     276.970     106.450
  P     -349.859     278.269     104.821
  C     -349.928     280.784     104.171
  O     -349.266     279.535     104.033
  C     -349.137     281.893     103.479
  O     -348.141     282.398     104.402
  C     -348.409     281.425     102.208
  O     -348.474     282.475     101.235
  C     -346.970     281.245     102.663
  O     -346.032     281.373     101.591
  C     -346.851     282.326     103.751
  N     -345.783     282.013     104.699
  C     -344.529     282.577     104.435
  O     -344.361     283.290     103.437
  N     -343.483     282.276     105.269
  C     -343.650     281.419     106.222
  N     -342.561     281.143     106.993
  C     -344.937     280.748     106.496
  C     -345.951     281.095     105.709
  O     -351.435     278.549     104.834
  O     -349.524     276.948     104.218
  H     -346.226     282.207     101.112
  H     -351.892     278.029     104.147
  H     -345.013     280.017     107.294
  H     -346.932     280.652     105.832
  H     -346.650     283.305     103.300
  H     -346.846     280.248     103.106
  H     -348.826     280.507     101.786
  H     -349.818     282.717     103.254
  H     -341.690     281.611     106.770
  H     -350.018     281.017     105.235
  H     -342.562     280.457     107.741
  H     -350.935     280.710     103.747
  P     -349.726     282.447     100.227
  C     -348.881     280.231      99.161
  O     -349.962     280.927      99.769
  O     -349.153     283.159      98.915
  O     -350.933     283.143     100.757
  H     -349.554     284.047      98.813
  H     -349.191     279.237      98.914
  H     -348.056     280.189      99.841
  H     -348.583     280.744      98.270

 6  7  8  9  10  11  12  13  14  15  16  26  30  31  32  33  35 0
 6-311+G(2d,p)
 ****
 37  38 0
 6-311+G(2d,p)
 ****
 1  2  3  4  5  17  18  19  20  21  22  23  24  25 0
 3-21G
 ****
 27  28  29  34  36  39  40  41  42  43  44  45  46 0
 3-21G
 ****


