%nproc=1
%NoSave
%Mem=1900MB
#P OB98/GEN NMR

erre ene a

0 1
  C      246.899      -1.578      18.701
  O      247.471      -0.469      19.368
  H      246.688      -2.357      19.439
  H      247.593      -1.974      17.955
  H      245.961      -1.282      18.221
  P      247.889       0.781      18.451
  C      245.597       1.905      18.800
  O      247.001       1.998      19.013
  C      244.849       2.865      19.732
  O      244.982       2.382      21.091
  C      245.392       4.294      19.690
  O      244.304       5.215      19.790
  C      246.253       4.388      20.938
  O      246.389       5.729      21.410
  C      245.515       3.452      21.894
  N      248.021       4.608      26.186
  C      247.110       5.288      25.463
  N      246.477       4.896      24.333
  C      246.835       3.647      23.998
  C      247.756       2.828      24.635
  C      248.370       3.362      25.781
  N      249.320       2.686      26.510
  N      247.886       1.627      23.961
  C      247.051       1.716      22.939
  N      246.407       2.921      22.913
  O      247.816       0.560      16.981
  O      249.345       1.127      19.025
  H      246.877       5.701      22.259
  H      249.363       1.104      19.997
  H      246.858       6.279      25.831
  H      246.887       0.943      22.193
  H      244.684       3.949      22.411
  H      247.261       4.005      20.722
  H      245.967       4.501      18.786
  H      243.782       2.835      19.484
  H      245.256       0.879      18.982
  H      249.701       3.133      27.332
  H      249.582       1.749      26.237
  H      245.395       2.160      17.755
  P      243.899       6.065      18.495
  C      241.535       5.099      18.067
  O      242.299       6.233      18.475
  O      244.513       5.626      17.207
  O      244.386       7.547      18.885
  H      244.742       7.978      18.084
  H      240.493       5.341      18.098
  H      241.731       4.281      18.728
  H      241.808       4.825      17.069

 6  7  8  9  10  11  12  13  14  15  25  28  32  33  34  35 0
 6-311+G(2d,p)
 ****
 36  39  40 0
 6-311+G(2d,p)
 ****
 1  2  3  4  5  16  17  18  19  20  21  22  23  24 0
 3-21G
 ****
 26  27  29  30  31  37  38  41  42  43  44  45  46  47 0
 3-21G
 ****
 48 0
 3-21G
 ****


