%nproc=1
%NoSave
%Mem=1900MB
#P OB98/GEN NMR

erre ene a

0 1
  C       77.241      84.123     -59.408
  O       78.394      83.929     -58.614
  P       78.511      82.703     -57.587
  C       78.198      80.159     -57.784
  O       77.932      81.424     -58.368
  C       76.978      79.238     -57.870
  O       75.960      79.694     -56.936
  C       76.331      79.161     -59.259
  O       75.832      77.828     -59.397
  C       75.187      80.149     -59.141
  O       74.184      79.947     -60.129
  C       74.749      79.910     -57.691
  N       73.963      81.021     -57.166
  C       72.637      81.110     -57.595
  O       72.202      80.323     -58.438
  N       71.848      82.121     -57.104
  C       72.372      83.023     -56.334
  N       71.543      83.997     -55.874
  C       73.799      83.036     -55.959
  C       74.525      82.009     -56.391
  O       77.913      82.942     -56.242
  O       80.081      82.399     -57.542
  H       73.441      80.563     -59.945
  H       80.545      83.067     -56.979
  H       74.202      83.840     -55.361
  H       75.580      81.931     -56.168
  H       74.147      78.994     -57.615
  H       75.568      81.171     -59.258
  H       77.015      79.406     -60.075
  H       77.289      78.237     -57.547
  H       70.568      83.941     -56.144
  H       78.445      80.317     -56.731
  H       71.828      84.696     -55.205
  H       79.067      79.699     -58.266
  P       75.738      77.117     -60.831
  C       77.469      76.289     -62.524
  O       77.186      77.228     -61.504
  O       74.608      77.577     -61.692
  O       75.612      75.554     -60.491
  H       75.300      75.075     -61.282
  H       78.341      76.630     -63.089
  H       76.621      76.185     -63.208
  H       77.693      75.317     -62.075
  H       77.370      84.992     -60.018
  H       76.389      84.256     -58.774
  H       77.090      83.268     -60.033

 3  4  5  6  7  8  9  10  11  12  13  23  27  28  29  30  32 0
 6-311+G(2d,p)
 ****
 34  35 0
 6-311+G(2d,p)
 ****
 1  2  14  15  16  17  18  19  20  21  22  24  25  26 0
 3-21G
 ****
 31  33  36  37  38  39  40  41  42  43  44  45  46 0
 3-21G
 ****


