%nproc=1
%NoSave
%Mem=1900MB
#P OB98/GEN NMR

erre ene a

0 1
  C      134.301     184.645      70.544
  O      133.319     184.866      71.536
  H      135.166     185.278      70.757
  H      133.909     184.904      69.557
  H      134.616     183.598      70.553
  P      131.921     184.099      71.338
  C      133.100     182.198      72.681
  O      132.306     182.556      71.560
  C      132.901     180.722      73.003
  O      133.861     180.281      73.987
  C      131.534     180.391      73.592
  O      130.511     180.323      72.612
  C      131.822     179.034      74.205
  O      131.873     178.037      73.168
  C      133.223     179.271      74.814
  N      133.175     179.706      76.211
  C      132.729     178.765      77.147
  O      132.389     177.639      76.789
  N      132.647     179.134      78.469
  C      132.989     180.332      78.828
  N      132.875     180.647      80.146
  C      133.480     181.348      77.879
  C      133.545     180.973      76.603
  O      131.671     184.172      69.758
  O      130.781     184.590      72.164
  H      132.185     177.212      73.583
  H      130.892     183.616      69.517
  H      133.743     182.337      78.224
  H      133.895     181.668      75.849
  H      133.836     178.364      74.752
  H      131.061     178.716      74.920
  H      131.262     181.086      74.394
  H      133.087     180.148      72.085
  H      132.476     179.951      80.763
  H      132.794     182.816      73.531
  H      132.943     181.597      80.488
  H      134.157     182.384      72.466
  P      129.101     181.005      72.961
  C      129.587     182.745      71.096
  O      129.168     182.520      72.434
  O      129.161     181.167      74.551
  O      127.898     180.228      72.522
  H      128.293     180.985      74.957
  H      129.581     183.795      70.892
  H      128.919     182.248      70.425
  H      130.577     182.362      70.963

 6  7  8  9  10  11  12  13  14  15  16  26  30  31  32  33  35 0
 6-311+G(2d,p)
 ****
 37  38 0
 6-311+G(2d,p)
 ****
 1  2  3  4  5  17  18  19  20  21  22  23  24  25 0
 3-21G
 ****
 27  28  29  34  36  39  40  41  42  43  44  45  46 0
 3-21G
 ****


