%nproc=1
%NoSave
%Mem=1900MB
#P OB98/GEN NMR

erre ene a

0 1
  C     -246.455      -7.156     124.499
  O     -246.865      -6.058     123.664
  P     -247.651      -4.818     124.338
  C     -249.957      -5.483     123.301
  O     -249.215      -5.153     124.465
  C     -251.388      -4.928     123.372
  O     -252.210      -5.744     124.255
  C     -251.476      -3.477     123.890
  O     -252.582      -2.853     123.225
  C     -251.801      -3.679     125.365
  O     -252.369      -2.527     125.977
  C     -252.760      -4.872     125.264
  N     -252.940      -5.600     126.522
  C     -254.125      -5.397     127.233
  O     -255.005      -4.614     126.894
  N     -254.270      -6.140     128.379
  C     -253.345      -7.003     128.908
  O     -253.521      -7.605     129.957
  C     -252.101      -7.147     128.144
  C     -251.964      -6.455     126.996
  O     -247.637      -3.737     123.148
  O     -247.017      -4.246     125.564
  H     -252.394      -2.693     126.935
  H     -247.385      -2.860     123.503
  H     -255.122      -6.018     128.892
  H     -251.348      -7.832     128.517
  H     -251.047      -6.557     126.414
  H     -253.735      -4.531     124.899
  H     -250.885      -3.932     125.903
  H     -250.560      -2.905     123.724
  H     -251.825      -4.997     122.372
  H     -250.004      -6.579     123.211
  H     -249.438      -5.091     122.423
  P     -252.274      -1.838     122.013
  C     -252.497       0.309     123.498
  O     -251.686      -0.488     122.669
  O     -253.771      -1.420     121.604
  O     -251.489      -2.431     120.882
  H     -254.330      -1.222     122.371
  H     -253.105      -0.292     124.167
  H     -253.150       0.939     122.880
  H     -251.846       0.954     124.100
  H     -245.951      -7.888     123.903
  H     -247.316      -7.598     124.955
  H     -245.793      -6.798     125.259

 3  4  5  6  7  8  9  10  11  12  13  23  28  29  30  31  32 0
 6-311+G(2d,p)
 ****
 33  34 0
 6-311+G(2d,p)
 ****
 1  2  14  15  16  17  18  19  20  21  22  24  25  26 0
 3-21G
 ****
 27  35  36  37  38  39  40  41  42  43  44  45 0
 3-21G
 ****


