%nproc=1
%NoSave
%Mem=1900MB
#P OB98/GEN NMR

erre ene a

0 1
  C     1371.740     374.767    -417.961
  O     1372.344     375.668    -417.040
  P     1371.386     376.355    -415.950
  C     1373.010     378.394    -415.974
  O     1371.659     377.940    -416.055
  C     1373.045     379.911    -415.753
  O     1372.639     380.588    -416.949
  C     1372.125     380.401    -414.665
  O     1372.665     380.154    -413.378
  C     1372.004     381.891    -414.995
  O     1373.076     382.627    -414.417
  C     1372.122     381.871    -416.537
  N     1370.849     382.177    -417.208
  C     1370.742     383.480    -417.725
  O     1371.659     384.300    -417.580
  N     1369.541     383.823    -418.345
  C     1368.585     382.973    -418.437
  N     1367.432     383.368    -419.055
  C     1368.670     381.583    -417.883
  C     1369.817     381.261    -417.269
  O     1372.074     375.959    -414.554
  O     1369.957     375.936    -416.011
  H     1373.896     382.309    -414.852
  H     1371.409     375.929    -413.839
  H     1367.836     380.905    -417.983
  H     1369.970     380.283    -416.860
  H     1372.854     382.636    -416.884
  H     1371.057     382.319    -414.636
  H     1371.126     379.923    -414.750
  H     1374.089     380.186    -415.537
  H     1367.395     384.319    -419.395
  H     1373.547     378.141    -416.894
  H     1366.643     382.760    -419.189
  H     1373.497     377.860    -415.145
  P     1371.704     379.512    -412.257
  C     1373.902     379.258    -410.946
  O     1372.536     379.623    -410.890
  O     1371.822     377.945    -412.587
  O     1370.309     379.982    -412.226
  H     1371.206     377.439    -412.025
  H     1374.392     379.556    -410.003
  H     1374.397     379.794    -411.775
  H     1373.986     378.176    -411.091
  H     1372.485     374.384    -418.626
  H     1370.990     375.282    -418.524
  H     1371.290     373.957    -417.425

 3  4  5  6  7  8  9  10  11  12  13  21  23  27  28  29  30  32 0
 6-311+G(2d,p)
 ****
 34  35 0
 6-311+G(2d,p)
 ****
 1  2  14  15  16  17  18  19  20  22  24  25  26 0
 3-21G
 ****
 31  33  36  37  38  39  40  41  42  43  44  45  46 0
 3-21G
 ****


