%nproc=1
%NoSave
%Mem=1900MB
#P OB98/GEN NMR

erre ene a

0 1
  C     1190.380    -893.415    -236.060
  O     1190.617    -893.696    -237.430
  H     1191.109    -893.995    -235.461
  H     1189.374    -893.737    -235.777
  H     1190.517    -892.354    -235.837
  P     1189.793    -892.856    -238.516
  C     1191.098    -893.826    -240.532
  O     1189.848    -893.710    -239.879
  C     1191.051    -894.949    -241.554
  O     1190.956    -896.233    -240.876
  C     1189.856    -894.886    -242.488
  O     1190.037    -893.902    -243.478
  C     1189.818    -896.319    -243.018
  O     1190.765    -896.492    -244.067
  C     1190.226    -897.120    -241.742
  N     1189.054    -897.707    -241.057
  C     1188.461    -898.793    -241.658
  O     1188.844    -899.253    -242.747
  N     1187.384    -899.326    -240.997
  C     1186.815    -898.841    -239.871
  O     1185.792    -899.303    -239.356
  C     1187.464    -897.663    -239.281
  C     1188.547    -897.152    -239.902
  O     1190.168    -891.422    -238.667
  O     1188.262    -893.017    -238.060
  H     1190.830    -897.452    -244.222
  H     1187.958    -892.187    -237.652
  H     1186.934    -900.130    -241.423
  H     1187.031    -897.226    -238.393
  H     1189.037    -896.279    -239.488
  H     1190.896    -897.941    -242.033
  H     1188.828    -896.588    -243.421
  H     1188.942    -894.705    -241.898
  H     1191.999    -894.957    -242.125
  H     1191.861    -894.065    -239.766
  H     1191.341    -892.878    -241.014
  P     1188.775    -893.388    -244.346
  C     1190.435    -892.840    -246.226
  O     1189.193    -893.440    -245.906
  O     1188.157    -892.110    -243.892
  O     1187.723    -894.614    -244.211
  H     1186.911    -894.273    -243.794
  H     1190.614    -892.929    -247.277
  H     1191.218    -893.332    -245.688
  H     1190.412    -891.805    -245.955

 6  7  8  9  10  11  12  13  14  15  16  26  31  32  33  34  35 0
 6-311+G(2d,p)
 ****
 36  37 0
 6-311+G(2d,p)
 ****
 1  2  3  4  5  17  18  19  20  21  22  23  24  25 0
 3-21G
 ****
 27  28  29  30  38  39  40  41  42  43  44  45 0
 3-21G
 ****


