%nproc=1
%NoSave
%Mem=1900MB
#P OB98/GEN NMR

erre ene a

0 1
  C      446.099     173.820     -48.663
  O      444.780     173.907     -49.176
  P      443.901     172.566     -49.212
  C      441.938     173.653     -47.907
  O      442.367     173.011     -49.101
  C      440.495     174.147     -48.021
  O      440.434     175.179     -49.043
  C      439.487     173.062     -48.392
  O      438.270     173.327     -47.681
  C      439.251     173.285     -49.876
  O      437.984     172.771     -50.288
  C      439.397     174.807     -49.971
  N      439.721     175.247     -51.327
  C      438.667     175.722     -52.120
  O      437.510     175.681     -51.679
  N      438.924     176.168     -53.384
  C      440.127     176.060     -53.870
  N      440.342     176.515     -55.132
  C      441.252     175.447     -53.124
  C      440.977     175.088     -51.866
  O      444.200     171.901     -47.781
  O      444.233     171.635     -50.340
  H      437.962     172.762     -51.267
  H      444.179     170.924     -47.835
  H      442.219     175.339     -53.593
  H      441.753     174.647     -51.234
  H      438.475     175.310     -49.667
  H      440.032     172.775     -50.454
  H      439.835     172.049     -48.148
  H      440.221     174.619     -47.068
  H      439.556     176.919     -55.629
  H      442.586     174.514     -47.712
  H      441.242     176.470     -55.592
  H      442.038     172.949     -47.071
  P      437.422     172.077     -47.135
  C      436.944     172.958     -44.768
  O      436.416     172.694     -46.057
  O      438.510     171.353     -46.196
  O      436.861     171.116     -48.131
  H      438.134     170.522     -45.839
  H      436.196     173.491     -44.184
  H      437.847     173.557     -44.843
  H      437.181     172.002     -44.255
  H      446.561     174.784     -48.701
  H      446.666     173.130     -49.252
  H      446.066     173.480     -47.649

 3  4  5  6  7  8  9  10  11  12  13  21  23  27  28  29  30  32 0
 6-311+G(2d,p)
 ****
 34  35 0
 6-311+G(2d,p)
 ****
 1  2  14  15  16  17  18  19  20  22  24  25  26 0
 3-21G
 ****
 31  33  36  37  38  39  40  41  42  43  44  45  46 0
 3-21G
 ****


