%nproc=1
%NoSave
%Mem=1900MB
#P OB98/GEN NMR

erre ene a

0 1
  C      655.941     532.478     552.951
  O      655.971     533.801     552.452
  H      656.899     531.982     552.753
  H      655.780     532.506     554.031
  H      655.127     531.914     552.484
  P      656.237     533.975     550.878
  C      658.164     535.028     549.481
  O      657.670     534.694     550.770
  C      658.960     536.330     549.568
  O      658.079     537.424     549.944
  C      660.063     536.307     550.611
  O      661.245     535.676     550.148
  C      660.271     537.801     550.837
  O      661.040     538.344     549.750
  C      658.829     538.324     550.811
  N      657.123     541.388     554.540
  C      657.655     541.654     553.331
  N      658.074     540.791     552.379
  C      657.875     539.519     552.793
  C      657.335     539.097     553.992
  C      656.958     540.096     554.900
  N      656.441     539.825     556.147
  N      657.318     537.713     554.059
  C      657.811     537.318     552.902
  N      658.193     538.363     552.104
  O      655.220     535.137     550.449
  O      656.096     532.746     550.051
  H      660.955     539.320     549.794
  H      655.133     535.174     549.475
  H      657.765     542.711     553.078
  H      657.924     536.274     552.590
  H      658.763     539.339     550.368
  H      660.831     538.012     551.758
  H      659.716     535.859     551.557
  H      659.365     536.560     548.570
  H      657.314     535.161     548.802
  H      656.341     540.604     556.781
  H      656.447     538.873     556.484
  H      658.805     534.227     549.114
  P      662.400     535.374     551.221
  C      664.563     536.616     552.004
  O      663.342     536.689     551.259
  O      663.306     534.286     550.479
  O      661.908     534.896     552.544
  H      663.700     533.671     551.122
  H      665.077     537.552     551.939
  H      665.181     535.841     551.601
  H      664.343     536.400     553.029

 6  7  8  9  10  11  12  13  14  15  25  28  32  33  34  35 0
 6-311+G(2d,p)
 ****
 36  39  40 0
 6-311+G(2d,p)
 ****
 1  2  3  4  5  16  17  18  19  20  21  22  23  24 0
 3-21G
 ****
 26  27  29  30  31  37  38  41  42  43  44  45  46  47 0
 3-21G
 ****
 48 0
 3-21G
 ****


