%nproc=1
%NoSave
%Mem=1900MB
#P OB98/GEN NMR

erre ene a

0 1
  C      143.414    -312.002    -272.828
  O      142.731    -313.248    -272.608
  P      143.134    -314.612    -273.361
  C      141.880    -314.105    -275.559
  O      143.136    -314.366    -274.950
  C      141.702    -314.889    -276.867
  O      140.282    -315.049    -277.167
  C      142.365    -314.241    -278.090
  O      142.913    -315.311    -278.876
  C      141.174    -313.589    -278.781
  O      141.406    -313.271    -280.152
  C      140.114    -314.674    -278.549
  N      138.733    -314.266    -278.820
  C      138.268    -314.368    -280.133
  O      139.002    -314.728    -281.048
  N      136.952    -314.035    -280.390
  C      136.186    -313.634    -279.428
  N      134.889    -313.331    -279.747
  C      136.641    -313.501    -278.032
  C      137.904    -313.832    -277.800
  O      142.304    -315.790    -272.944
  O      144.675    -314.860    -273.009
  H      144.833    -315.819    -272.915
  H      141.479    -314.101    -280.645
  H      135.963    -313.172    -277.255
  H      138.314    -313.792    -276.795
  H      140.355    -315.556    -279.164
  H      140.929    -312.655    -278.265
  H      143.170    -313.544    -277.839
  H      142.098    -315.905    -276.709
  H      134.614    -313.445    -280.714
  H      141.817    -313.033    -275.780
  H      134.205    -313.023    -279.072
  H      141.078    -314.346    -274.851
  P      144.486    -315.602    -278.843
  C      145.308    -313.722    -280.461
  O      145.249    -314.213    -279.139
  O      144.712    -316.391    -280.224
  O      144.980    -316.418    -277.689
  H      145.492    -316.959    -280.140
  H      145.096    -312.651    -280.454
  H      144.599    -314.228    -281.130
  H      146.328    -313.877    -280.842
  H      142.972    -311.241    -272.220
  H      143.332    -311.728    -273.859
  H      144.446    -312.111    -272.569

 3  4  5  6  7  8  9  10  11  12  13  24  27  28  29  30  32 0
 6-311+G(2d,p)
 ****
 34  35 0
 6-311+G(2d,p)
 ****
 1  2  14  15  16  17  18  19  20  21  22  23  25  26 0
 3-21G
 ****
 31  33  36  37  38  39  40  41  42  43  44  45  46 0
 3-21G
 ****


