%nproc=1
%NoSave
%Mem=1900MB
#P OB98/GEN NMR

erre ene a

0 1
  C     -687.986    1062.609     459.431
  O     -687.160    1063.035     458.370
  H     -687.860    1061.534     459.562
  H     -689.037    1062.816     459.192
  H     -687.713    1063.121     460.357
  P     -687.195    1064.608     458.021
  C     -684.599    1064.525     457.750
  O     -685.849    1064.911     457.206
  C     -683.456    1064.793     456.760
  O     -683.731    1064.068     455.523
  C     -683.302    1066.289     456.369
  O     -681.938    1066.521     456.056
  C     -684.151    1066.348     455.124
  O     -683.902    1067.560     454.418
  C     -683.746    1065.051     454.454
  N     -684.233    1064.408     449.418
  C     -683.194    1064.792     450.161
  N     -683.131    1064.922     451.508
  C     -684.305    1064.603     452.075
  C     -685.457    1064.184     451.437
  C     -685.414    1064.089     450.036
  N     -686.477    1063.718     449.249
  N     -686.477    1063.956     452.355
  C     -685.929    1064.206     453.528
  N     -684.630    1064.611     453.404
  O     -686.937    1065.304     459.439
  O     -688.448    1065.095     457.377
  H     -683.951    1068.332     455.008
  H     -687.784    1065.542     459.851
  H     -682.270    1065.020     449.621
  H     -686.440    1064.124     454.493
  H     -682.729    1065.103     454.047
  H     -685.221    1066.358     455.366
  H     -683.625    1066.972     457.184
  H     -682.525    1064.384     457.178
  H     -684.635    1063.451     457.988
  H     -684.413    1065.084     458.680
  H     -686.371    1063.683     448.252
  H     -687.356    1063.488     449.709
  P     -681.155    1067.742     456.776
  C     -679.008    1066.444     457.527
  O     -679.585    1067.462     456.707
  O     -681.465    1067.467     458.321
  O     -681.581    1069.108     456.374
  H     -681.453    1068.303     458.813
  H     -677.954    1066.398     457.350
  H     -679.451    1065.500     457.288
  H     -679.187    1066.672     458.557

 6  7  8  9  10  11  12  13  14  15  25  28  32  33  34  35 0
 6-311+G(2d,p)
 ****
 36  37  40 0
 6-311+G(2d,p)
 ****
 1  2  3  4  5  16  17  18  19  20  21  22  23  24 0
 3-21G
 ****
 26  27  29  30  31  38  39 41  42  43  44  45  46  47  48 0
 3-21G
 ****


