%nproc=1
%NoSave
%Mem=1900MB
#P OB98/GEN NMR

erre ene a

0 1
  C      -31.332     -36.595     -69.482
  O      -30.927     -35.875     -70.628
  H      -32.160     -37.252     -69.758
  H      -31.672     -35.914     -68.698
  H      -30.509     -37.211     -69.111
  P      -29.794     -34.750     -70.459
  C      -31.577     -32.895     -70.768
  O      -30.594     -33.464     -69.917
  C      -32.071     -31.570     -70.192
  O      -32.648     -31.758     -68.883
  C      -30.988     -30.515     -69.990
  O      -30.550     -29.918     -71.199
  C      -31.735     -29.539     -69.095
  O      -32.661     -28.773     -69.886
  C      -32.484     -30.511     -68.151
  N      -31.776     -30.744     -66.895
  C      -32.281     -30.095     -65.760
  O      -33.271     -29.370     -65.843
  N      -31.628     -30.253     -64.561
  C      -30.555     -30.978     -64.504
  N      -29.919     -31.063     -63.302
  C      -29.999     -31.693     -65.669
  C      -30.647     -31.530     -66.820
  O      -28.922     -34.506     -71.649
  O      -28.982     -35.196     -69.155
  H      -33.232     -28.286     -69.265
  H      -28.259     -34.536     -69.014
  H      -29.097     -32.277     -65.568
  H      -30.290     -32.009     -67.724
  H      -33.489     -30.136     -67.926
  H      -31.077     -28.829     -68.587
  H      -30.142     -30.926     -69.429
  H      -32.873     -31.204     -70.846
  H      -30.305     -30.526     -62.537
  H      -32.398     -33.610     -70.867
  H      -28.953     -31.366     -63.237
  H      -31.152     -32.702     -71.758
  P      -29.067     -29.301     -71.238
  C      -29.825     -27.124     -70.025
  O      -28.971     -28.256     -70.024
  O      -29.103     -28.372     -72.537
  O      -27.952     -30.299     -71.274
  H      -28.769     -28.849     -73.321
  H      -29.635     -26.533     -69.153
  H      -30.845     -27.447     -70.022
  H      -29.639     -26.538     -70.900

 6  7  8  9  10  11  12  13  14  15  16  26  30  31  32  33  35 0
 6-311+G(2d,p)
 ****
 37  38 0
 6-311+G(2d,p)
 ****
 1  2  3  4  5  17  18  19  20  21  22  23  24  25 0
 3-21G
 ****
 27  28  29  34  36  39  40  41  42  43  44  45  46 0
 3-21G
 ****


