%nproc=1
%NoSave
%Mem=1900MB
#P OB98/GEN NMR

erre ene a

0 1
  C      -11.243      12.813      39.721
  O      -10.969      12.657      41.116
  P       -9.840      13.606      41.746
  C       -7.333      13.411      42.380
  O       -8.513      12.729      41.976
  C       -6.116      12.480      42.364
  O       -6.135      11.584      43.512
  C       -6.031      11.599      41.114
  O       -4.643      11.410      40.808
  C       -6.609      10.279      41.586
  O       -6.223       9.202      40.736
  C       -6.059      10.233      43.010
  N       -7.621       5.405      43.567
  C       -6.882       6.012      42.614
  N       -6.527       7.312      42.527
  C       -6.983       7.997      43.591
  C       -7.758       7.518      44.634
  C       -8.083       6.152      44.600
  N       -8.860       5.538      45.556
  N       -8.072       8.537      45.513
  C       -7.500       9.609      45.003
  N       -6.806       9.329      43.860
  O      -10.376      13.875      43.231
  O       -9.638      14.883      40.999
  H       -6.566       8.369      41.123
  H      -10.695      14.793      43.307
  H       -6.531       5.368      41.811
  H       -7.562      10.606      45.413
  H       -5.008       9.912      43.042
  H       -7.706      10.335      41.592
  H       -6.553      11.998      40.238
  H       -5.211      13.095      42.444
  H       -7.463      13.815      43.388
  H       -9.071       4.559      45.440
  H       -9.248       6.092      46.303
  H       -7.181      14.278      41.727
  P       -3.981      12.466      39.802
  C       -3.172      12.337      37.340
  O       -3.965      11.764      38.362
  O       -2.440      12.486      40.233
  O       -4.596      13.827      39.854
  H       -2.034      13.339      39.991
  H       -2.689      11.532      36.777
  H       -2.397      12.998      37.740
  H       -3.814      12.905      36.664
  H      -12.010      12.126      39.429
  H      -10.354      12.615      39.159
  H      -11.570      13.814      39.531

 3  4  5  6  7  8  9  10  11  12  22  25  29  30  31  32 0
 6-311+G(2d,p)
 ****
 33  36  37 0
 6-311+G(2d,p)
 ****
 1  2  13  14  15  16  17  18  19  20  21  23  24  26 0
 3-21G
 ****
 27  28  34  35  38  39  40  41  42  43  44  45  46  47  48 0
 3-21G
 ****


