%nproc=1
%NoSave
%Mem=1900MB
#P OB98/GEN NMR

erre ene a

0 1
  C      313.469    -569.917     564.346
  O      313.954    -568.617     564.625
  H      314.020    -570.632     564.959
  H      313.628    -570.162     563.293
  H      312.406    -569.990     564.590
  P      313.304    -567.371     563.846
  C      315.254    -565.784     563.217
  O      314.285    -566.142     564.188
  C      315.515    -564.281     563.257
  O      314.329    -563.535     562.888
  C      315.901    -563.728     564.624
  O      317.222    -564.055     565.021
  C      315.720    -562.242     564.367
  O      316.819    -561.747     563.593
  C      314.405    -562.241     563.550
  N      313.221    -562.018     564.382
  C      313.026    -560.713     564.850
  O      313.813    -559.819     564.567
  N      311.938    -560.459     565.659
  C      311.142    -561.423     565.984
  N      310.089    -561.114     566.793
  C      311.323    -562.818     565.539
  C      312.367    -563.042     564.742
  O      311.850    -567.128     564.100
  O      313.651    -567.639     562.308
  H      316.673    -560.788     563.466
  H      313.262    -566.902     561.777
  H      310.646    -563.589     565.867
  H      312.578    -564.040     564.376
  H      314.439    -561.474     562.763
  H      315.678    -561.650     565.286
  H      315.173    -564.039     565.394
  H      316.280    -564.056     562.501
  H      309.987    -560.149     567.088
  H      314.886    -566.093     562.235
  H      309.456    -561.815     567.164
  H      316.196    -566.300     563.420
  P      317.390    -565.207     566.132
  C      319.345    -563.668     566.944
  O      318.838    -564.982     566.791
  O      317.554    -566.529     565.257
  O      316.272    -565.297     567.120
  H      316.709    -567.012     565.197
  H      320.314    -563.710     567.397
  H      318.685    -563.101     567.566
  H      319.420    -563.201     565.984

 6  7  8  9  10  11  12  13  14  15  16  26  30  31  32  33  35 0
 6-311+G(2d,p)
 ****
 37  38 0
 6-311+G(2d,p)
 ****
 1  2  3  4  5  17  18  19  20  21  22  23  24  25 0
 3-21G
 ****
 27  28  29  34  36  39  40  41  42  43  44  45  46 0
 3-21G
 ****


