%nproc=1
%NoSave
%Mem=1900MB
#P OB98/GEN NMR

erre ene a

0 1
  C     -880.288     513.679    -698.766
  O     -879.616     512.473    -699.183
  P     -879.004     511.555    -698.040
  C     -876.594     512.450    -698.412
  O     -877.446     511.313    -698.366
  C     -875.169     512.057    -698.001
  O     -875.129     511.523    -696.655
  C     -874.561     510.983    -698.894
  O     -874.147     511.525    -700.135
  C     -873.403     510.514    -698.007
  O     -872.288     511.420    -698.087
  C     -874.035     510.582    -696.603
  N     -873.886     507.223    -692.729
  C     -873.280     508.418    -692.921
  N     -873.373     509.257    -693.988
  C     -874.199     508.748    -694.906
  C     -874.883     507.552    -694.868
  C     -874.691     506.759    -693.710
  N     -875.292     505.516    -693.535
  N     -875.631     507.347    -696.014
  C     -875.372     508.426    -696.752
  N     -874.512     509.308    -696.123
  O     -879.669     510.122    -698.294
  O     -879.297     512.048    -696.647
  H     -871.658     511.186    -697.367
  H     -880.341     509.930    -697.612
  H     -872.644     508.767    -692.096
  H     -875.779     508.602    -697.747
  H     -873.334     510.964    -695.847
  H     -873.035     509.520    -698.275
  H     -875.279     510.167    -699.057
  H     -874.547     512.971    -698.019
  H     -876.970     513.246    -697.756
  H     -875.044     504.991    -692.714
  H     -875.827     505.144    -694.302
  H     -876.609     512.858    -699.439
  P     -875.140     511.346    -701.384
  C     -873.800     509.209    -701.901
  O     -874.296     510.434    -702.414
  O     -875.075     512.800    -702.058
  O     -876.512     510.830    -701.041
  H     -874.157     513.130    -702.137
  H     -873.289     508.683    -702.708
  H     -874.633     508.583    -701.545
  H     -873.098     509.403    -701.078
  H     -880.651     514.201    -699.627
  H     -879.602     514.303    -698.233
  H     -881.110     513.427    -698.129

 3  4  5  6  7  8  9  10  11  12  22  25  29  30  31  32 0
 6-311+G(2d,p)
 ****
 33  36  37 0
 6-311+G(2d,p)
 ****
 1  2  13  14  15  16  17  18  19  20  21  23  24  26 0
 3-21G
 ****
 27  28  34  35  38  39  40  41  42  43  44  45  46  47  48 0
 3-21G
 ****


