%nproc=1
%NoSave
%Mem=1900MB
#P OB98/GEN NMR

erre ene a

0 1
  C     -154.613      75.999      84.585
  O     -154.364      77.382      84.723
  H     -155.154      75.653      85.468
  H     -153.683      75.442      84.494
  H     -155.241      75.809      83.703
  P     -153.487      78.116      83.595
  C     -155.192      79.870      82.758
  O     -154.018      79.631      83.514
  C     -156.003      81.023      83.355
  O     -156.691      80.542      84.557
  C     -155.142      82.240      83.773
  O     -155.964      83.408      83.647
  C     -154.886      81.931      85.243
  O     -154.386      83.056      85.923
  C     -156.252      81.391      85.654
  N     -156.217      80.651      86.918
  C     -156.533      81.380      88.076
  O     -156.828      82.576      87.982
  N     -156.500      80.740      89.285
  C     -156.098      79.506      89.345
  N     -156.071      78.933      90.590
  C     -155.695      78.721      88.168
  C     -155.778      79.349      86.987
  O     -153.394      77.408      82.276
  O     -152.045      78.274      84.277
  H     -155.071      83.770      85.976
  H     -151.428      77.626      83.894
  H     -155.357      77.702      88.273
  H     -155.499      78.854      86.056
  H     -156.983      82.204      85.752
  H     -154.128      81.144      85.344
  H     -154.232      82.344      83.183
  H     -156.781      81.323      82.645
  H     -156.343      79.514      91.372
  H     -155.791      78.946      82.764
  H     -155.764      77.984      90.762
  H     -154.934      80.117      81.720
  P     -155.388      84.889      83.870
  C     -155.860      85.827      81.503
  O     -156.164      85.902      82.899
  O     -153.907      85.000      83.796
  O     -155.916      85.315      85.331
  H     -155.273      85.922      85.741
  H     -156.442      86.551      80.972
  H     -156.091      84.847      81.140
  H     -154.819      86.026      81.353

 6  7  8  9  10  11  12  13  14  15  16  26  30  31  32  33  35 0
 6-311+G(2d,p)
 ****
 37  38 0
 6-311+G(2d,p)
 ****
 1  2  3  4  5  17  18  19  20  21  22  23  24  25 0
 3-21G
 ****
 27  28  29  34  36  39  40  41  42  43  44  45  46 0
 3-21G
 ****


