%nproc=1
%NoSave
%Mem=1900MB
#P OB98/GEN NMR

erre ene a

0 1
  C      490.928    -539.366     292.846
  O      490.846    -540.330     291.818
  H      490.051    -538.714     292.784
  H      491.827    -538.755     292.729
  H      490.931    -539.851     293.827
  P      492.049    -541.376     291.645
  C      493.427    -539.817     290.114
  O      493.372    -540.512     291.355
  C      494.735    -539.029     290.007
  O      495.811    -539.901     290.438
  C      495.034    -538.566     288.573
  O      495.291    -537.167     288.476
  C      496.129    -539.523     288.115
  O      496.975    -539.008     287.108
  C      496.840    -539.887     289.429
  N      497.541    -541.168     289.385
  C      498.821    -541.212     289.932
  O      499.398    -540.266     290.466
  N      499.457    -542.426     289.852
  C      498.950    -543.563     289.298
  O      499.559    -544.621     289.263
  C      497.601    -543.443     288.721
  C      496.968    -542.270     288.787
  O      491.806    -542.486     290.680
  O      492.302    -541.926     293.127
  H      496.412    -538.739     286.355
  H      491.904    -542.817     293.215
  H      500.377    -542.473     290.256
  H      497.172    -544.322     288.257
  H      495.971    -542.148     288.375
  H      497.565    -539.115     289.690
  H      495.654    -540.423     287.710
  H      494.152    -538.705     287.931
  H      494.700    -538.182     290.707
  H      492.570    -539.142     290.071
  H      493.360    -540.536     289.288
  P      494.211    -536.071     288.045
  C      494.896    -535.917     285.519
  O      493.912    -536.254     286.485
  O      494.474    -534.684     288.527
  O      492.852    -536.589     288.756
  H      492.344    -535.786     288.987
  H      494.513    -536.107     284.538
  H      495.772    -536.509     285.681
  H      495.145    -534.880     285.610

 6  7  8  9  10  11  12  13  14  15  16  26  31  32  33  34  35 0
 6-311+G(2d,p)
 ****
 36  37 0
 6-311+G(2d,p)
 ****
 1  2  3  4  5  17  18  19  20  21  22  23  24  25 0
 3-21G
 ****
 27  28  29  30  38  39  40  41  42  43  44  45 0
 3-21G
 ****


