%nproc=1
%NoSave
%Mem=1900MB
#P OB98/GEN NMR

erre ene a

0 1
  C      816.666     192.026     249.590
  O      815.265     191.850     249.687
  H      817.161     191.177     250.082
  H      816.963     192.946     250.100
  H      816.977     192.059     248.541
  P      814.353     192.886     248.883
  C      813.438     193.935     251.112
  O      814.077     194.134     249.856
  C      814.108     194.777     252.187
  O      815.535     194.570     252.196
  C      813.972     196.283     251.965
  O      812.668     196.750     252.216
  C      815.007     196.801     252.965
  O      814.489     196.789     254.307
  C      816.138     195.752     252.800
  N      817.255     196.258     252.004
  C      818.033     197.249     252.616
  O      817.763     197.635     253.763
  N      819.073     197.790     251.912
  C      819.335     197.372     250.709
  N      820.377     197.955     250.061
  C      818.560     196.308     250.037
  C      817.533     195.813     250.733
  O      812.930     192.146     248.847
  O      814.875     193.290     247.541
  H      814.345     195.857     254.532
  H      812.608     191.880     249.725
  H      818.815     195.995     249.043
  H      816.909     195.021     250.314
  H      816.522     195.451     253.784
  H      815.301     197.829     252.748
  H      814.308     196.560     250.960
  H      813.714     194.478     253.164
  H      820.877     198.700     250.546
  H      813.438     192.881     251.387
  H      820.645     197.747     249.116
  H      812.390     194.241     250.999
  P      811.808     197.434     251.033
  C      811.016     199.268     252.662
  O      811.675     198.984     251.422
  O      810.523     196.752     250.708
  O      812.844     197.484     249.809
  H      813.657     197.995     249.985
  H      810.986     200.326     252.816
  H      811.552     198.806     253.465
  H      810.018     198.884     252.632

 6  7  8  9  10  11  12  13  14  15  16  26  30  31  32  33  35 0
 6-311+G(2d,p)
 ****
 37  38 0
 6-311+G(2d,p)
 ****
 1  2  3  4  5  17  18  19  20  21  22  23  24  25 0
 3-21G
 ****
 27  28  29  34  36  39  40  41  42  43  44  45  46 0
 3-21G
 ****


