%nproc=1
%NoSave
%Mem=1900MB
#P OB98/GEN NMR

erre ene a

0 1
  C     -610.800    -168.984     372.016
  O     -609.664    -169.816     372.133
  H     -610.949    -168.410     372.938
  H     -610.642    -168.279     371.195
  H     -611.693    -169.577     371.800
  P     -609.702    -170.932     373.286
  C     -608.449    -173.188     373.606
  O     -608.889    -172.193     372.699
  C     -608.271    -174.515     372.867
  O     -609.552    -175.026     372.444
  C     -607.419    -174.414     371.600
  O     -606.027    -174.419     371.881
  C     -607.850    -175.682     370.882
  O     -607.190    -176.819     371.472
  C     -609.353    -175.721     371.173
  N     -610.908    -175.976     366.315
  C     -610.088    -176.763     367.031
  N     -609.715    -176.615     368.314
  C     -610.300    -175.534     368.868
  C     -611.154    -174.643     368.255
  C     -611.467    -174.899     366.906
  N     -612.300    -174.090     366.152
  N     -611.521    -173.626     369.118
  C     -610.922    -173.933     370.254
  N     -610.155    -175.077     370.152
  O     -611.220    -171.440     373.273
  O     -609.254    -170.483     374.639
  H     -607.420    -177.594     370.930
  H     -611.433    -171.869     374.122
  H     -609.661    -177.608     366.503
  H     -611.006    -173.371     371.173
  H     -609.735    -176.743     371.294
  H     -607.585    -175.678     369.815
  H     -607.711    -173.545     370.993
  H     -607.827    -175.238     373.563
  H     -609.196    -173.318     374.396
  H     -612.309    -174.255     365.158
  H     -612.595    -173.211     366.548
  H     -607.501    -172.872     374.060
  P     -605.027    -174.619     370.647
  C     -602.659    -173.674     370.121
  O     -603.897    -173.502     370.800
  O     -605.889    -174.106     369.386
  O     -604.534    -176.023     370.458
  H     -605.587    -174.531     368.561
  H     -602.020    -172.842     370.329
  H     -602.835    -173.734     369.067
  H     -602.191    -174.576     370.456

 6  7  8  9  10  11  12  13  14  15  25  28  32  33  34  35 0
 6-311+G(2d,p)
 ****
 36  39  40 0
 6-311+G(2d,p)
 ****
 1  2  3  4  5  16  17  18  19  20  21  22  23  24 0
 3-21G
 ****
 26  27  29  30  31  37  38  41  42  43  44  45  46  47 0
 3-21G
 ****
 48 0
 3-21G
 ****


