%nproc=1
%NoSave
%Mem=1900MB
#P OB98/GEN NMR

erre ene a

0 1
  C      -24.347    -206.334     378.142
  O      -24.025    -207.600     378.727
  P      -22.912    -207.614     379.883
  C      -24.165    -209.638     380.942
  O      -22.917    -209.059     380.576
  C      -23.943    -210.797     381.917
  O      -23.027    -211.767     381.377
  C      -23.325    -210.359     383.234
  O      -24.305    -209.768     384.069
  C      -22.766    -211.669     383.777
  O      -23.731    -212.367     384.582
  C      -22.444    -212.467     382.492
  N      -21.015    -212.671     382.298
  C      -20.425    -213.642     383.114
  O      -21.097    -214.250     383.949
  N      -19.078    -213.877     382.977
  C      -18.385    -213.189     382.125
  N      -17.053    -213.462     382.039
  C      -18.969    -212.135     381.267
  C      -20.277    -211.928     381.406
  O      -23.542    -206.662     381.006
  O      -21.571    -207.130     379.436
  H      -23.262    -213.147     384.939
  H      -22.833    -206.187     381.480
  H      -18.348    -211.582     380.578
  H      -20.790    -211.177     380.816
  H      -22.925    -213.452     382.526
  H      -21.890    -211.497     384.409
  H      -22.506    -209.653     383.049
  H      -24.910    -211.288     382.101
  H      -16.690    -214.186     382.643
  H      -24.689    -209.997     380.053
  H      -16.422    -212.983     381.417
  H      -24.797    -208.862     381.388
  P      -24.259    -208.177     384.263
  C      -26.775    -208.325     384.761
  O      -25.521    -207.834     385.193
  O      -24.753    -207.652     382.830
  O      -22.955    -207.572     384.660
  H      -24.678    -206.682     382.785
  H      -27.497    -208.206     385.571
  H      -26.706    -209.386     384.501
  H      -27.120    -207.749     383.896
  H      -25.097    -206.469     377.391
  H      -23.469    -205.913     377.698
  H      -24.715    -205.674     378.900

 3  4  5  6  7  8  9  10  11  12  13  21  23  27  28  29  30  32 0
 6-311+G(2d,p)
 ****
 34  35 0
 6-311+G(2d,p)
 ****
 1  2  14  15  16  17  18  19  20  22  24  25  26 0
 3-21G
 ****
 31  33  36  37  38  39  40  41  42  43  44  45  46 0
 3-21G
 ****


