%nproc=1
%NoSave
%Mem=1900MB
#P OB98/GEN NMR

erre ene a

0 1
  C       90.931    -387.386    -435.105
  O       90.157    -386.217    -434.930
  P       90.510    -384.944    -435.842
  C       92.398    -383.148    -435.880
  O       91.836    -384.284    -435.234
  C       93.733    -382.793    -435.223
  O       94.720    -383.811    -435.501
  C       94.338    -381.489    -435.735
  O       93.715    -380.362    -435.141
  C       95.799    -381.651    -435.344
  O       96.010    -381.277    -433.974
  C       96.010    -383.170    -435.535
  N       96.742    -383.482    -436.759
  C       98.003    -382.905    -436.879
  O       98.479    -382.155    -436.026
  N       98.683    -383.189    -438.031
  C       98.214    -383.931    -439.080
  O       98.853    -384.102    -440.110
  C       96.863    -384.489    -438.908
  C       96.199    -384.239    -437.777
  O       89.359    -383.888    -435.491
  O       90.576    -385.228    -437.303
  H       95.788    -380.327    -433.905
  H       89.125    -383.374    -436.289
  H       99.609    -382.800    -438.126
  H       96.462    -385.081    -439.717
  H       95.200    -384.630    -437.640
  H       96.571    -383.580    -434.686
  H       96.460    -381.027    -435.950
  H       94.259    -381.444    -436.829
  H       93.585    -382.746    -434.136
  H       91.709    -382.301    -435.792
  H       92.541    -383.372    -436.941
  P       93.982    -378.933    -435.829
  C       96.076    -377.375    -435.720
  O       95.277    -378.352    -435.091
  O       92.751    -378.088    -435.251
  O       94.047    -379.009    -437.317
  H       92.500    -378.374    -434.354
  H       95.468    -376.689    -436.315
  H       96.808    -377.863    -436.363
  H       96.603    -376.804    -434.951
  H       90.585    -388.146    -434.436
  H       91.958    -387.168    -434.897
  H       90.836    -387.729    -436.114

 3  4  5  6  7  8  9  10  11  12  13  23  28  29  30  31  32 0
 6-311+G(2d,p)
 ****
 33  34 0
 6-311+G(2d,p)
 ****
 1  2  14  15  16  17  18  19  20  21  22  24  25  26 0
 3-21G
 ****
 27  35  36  37  38  39  40  41  42  43  44  45 0
 3-21G
 ****


