%nproc=1
%NoSave
%Mem=1900MB
#P OB98/GEN NMR

erre ene a

0 1
  C       80.222    -185.427     -36.621
  O       80.016    -185.666     -38.003
  P       81.194    -185.287     -39.019
  C       82.431    -183.123     -39.757
  O       81.357    -183.689     -39.018
  C       82.737    -181.703     -39.276
  O       83.151    -181.740     -37.885
  C       83.856    -181.016     -40.065
  O       83.581    -179.609     -40.150
  C       85.074    -181.189     -39.179
  O       86.063    -180.199     -39.450
  C       84.433    -181.086     -37.794
  N       88.710    -180.681     -35.129
  C       88.067    -179.736     -35.904
  N       88.696    -178.552     -36.053
  N       86.907    -179.932     -36.473
  C       86.398    -181.167     -36.240
  C       86.934    -182.182     -35.479
  C       88.222    -181.956     -34.863
  O       88.862    -182.761     -34.190
  N       86.107    -183.277     -35.447
  C       85.096    -182.948     -36.226
  N       85.241    -181.691     -36.756
  O       80.544    -185.595     -40.451
  O       82.455    -186.060     -38.830
  H       86.314    -180.301     -40.389
  H       80.918    -186.421     -40.812
  H       89.608    -180.487     -34.720
  H       84.248    -183.583     -36.452
  H       84.252    -180.042     -37.512
  H       85.522    -182.177     -39.343
  H       89.622    -178.360     -35.698
  H       84.011    -181.412     -41.077
  H       88.269    -177.856     -36.651
  H       81.814    -181.113     -39.320
  H       82.161    -183.094     -40.812
  H       83.320    -183.757     -39.651
  P       83.572    -178.979     -41.627
  C       85.388    -177.878     -43.138
  O       85.074    -178.490     -41.902
  O       82.757    -177.613     -41.442
  O       82.974    -179.866     -42.668
  H       82.344    -177.351     -42.285
  H       85.705    -176.848     -42.949
  H       84.536    -177.864     -43.823
  H       86.208    -178.423     -43.605
  H       79.354    -185.729     -36.074
  H       80.399    -184.384     -36.462
  H       81.069    -185.988     -36.284

 3  4  5  6  7  8  9  10  11  12  23  26  30  31 0
 6-311+G(2d,p)
 ****
 33  35  36  37  38 0
 6-311+G(2d,p)
 ****
 1  2  13  14  15  16  17  18  19  20  21  22  24  25 0
 3-21G
 ****
 27  28  29  32  34  39  40  41  42  43  44  45  46  47  48  49 0
 3-21G
 ****


