%nproc=1
%NoSave
%Mem=1900MB
#P OB98/GEN NMR

erre ene a

0 1
  C      -54.025      23.588    -434.863
  O      -55.425      23.724    -435.135
  P      -56.446      23.334    -433.960
  C      -58.374      24.525    -432.679
  O      -57.212      24.662    -433.489
  C      -58.810      25.896    -432.145
  O      -57.745      26.528    -431.409
  C      -59.169      26.876    -433.249
  O      -60.463      26.599    -433.754
  C      -59.064      28.217    -432.531
  O      -60.313      28.598    -431.928
  C      -57.991      27.947    -431.450
  N      -56.768      28.691    -431.681
  C      -56.638      29.893    -430.971
  O      -57.544      30.272    -430.223
  N      -55.503      30.640    -431.147
  C      -54.589      30.241    -431.978
  N      -53.488      31.028    -432.116
  C      -54.698      28.995    -432.765
  C      -55.803      28.276    -432.572
  O      -55.478      23.009    -432.725
  O      -57.329      22.175    -434.285
  H      -60.116      29.400    -431.399
  H      -55.866      22.315    -432.164
  H      -53.915      28.706    -433.450
  H      -55.968      27.348    -433.107
  H      -58.372      28.225    -430.455
  H      -58.790      29.018    -433.220
  H      -58.425      26.828    -434.055
  H      -59.665      25.751    -431.474
  H      -53.447      31.877    -431.561
  H      -58.170      23.850    -431.843
  H      -52.721      30.815    -432.737
  H      -59.169      24.064    -433.271
  P      -60.573      25.674    -435.061
  C      -61.119      23.193    -435.422
  O      -61.203      24.295    -434.537
  O      -59.042      25.264    -435.308
  O      -61.195      26.272    -436.276
  H      -58.960      24.768    -436.142
  H      -61.389      22.285    -434.878
  H      -60.104      23.083    -435.811
  H      -61.824      23.328    -436.252
  H      -53.464      23.880    -435.726
  H      -53.806      22.569    -434.623
  H      -53.760      24.214    -434.037

 3  4  5  6  7  8  9  10  11  12  13  21  23  27  28  29  30  32 0
 6-311+G(2d,p)
 ****
 34  35 0
 6-311+G(2d,p)
 ****
 1  2  14  15  16  17  18  19  20  22  24  25  26 0
 3-21G
 ****
 31  33  36  37  38  39  40  41  42  43  44  45  46 0
 3-21G
 ****


