%nproc=1
%NoSave
%Mem=1900MB
#P OB98/GEN NMR

erre ene a

0 1
  C      358.887     479.525    -291.216
  O      358.456     478.276    -291.715
  H      359.640     479.353    -290.446
  H      358.046     480.064    -290.775
  H      359.333     480.121    -292.020
  P      357.357     478.292    -292.889
  C      358.060     475.978    -293.856
  O      357.055     476.742    -293.198
  C      357.554     474.561    -294.128
  O      357.740     473.752    -292.942
  C      356.070     474.502    -294.509
  O      355.894     473.583    -295.589
  C      355.384     473.987    -293.251
  O      354.162     473.319    -293.540
  C      356.485     473.119    -292.626
  N      356.309     472.981    -291.176
  C      355.771     471.774    -290.725
  O      355.455     470.889    -291.524
  N      355.549     471.614    -289.379
  C      355.787     472.593    -288.560
  N      355.526     472.382    -287.240
  C      356.310     473.903    -289.002
  C      356.552     474.024    -290.311
  O      358.199     478.774    -294.160
  O      356.144     479.122    -292.616
  H      354.373     472.492    -294.023
  H      357.610     479.031    -294.911
  H      356.485     474.693    -288.288
  H      356.936     474.948    -290.726
  H      356.488     472.118    -293.073
  H      355.156     474.838    -292.593
  H      355.666     475.468    -294.795
  H      358.179     474.113    -294.911
  H      355.159     471.477    -286.981
  H      358.950     475.941    -293.221
  H      355.650     473.080    -286.526
  H      358.311     476.460    -294.805
  P      355.017     474.120    -296.827
  C      356.276     472.722    -298.611
  O      355.037     472.987    -297.966
  O      355.908     475.298    -297.437
  O      353.648     474.587    -296.431
  H      355.595     476.166    -297.128
  H      356.141     471.951    -299.340
  H      356.995     472.404    -297.885
  H      356.625     473.611    -299.093

 6  7  8  9  10  11  12  13  14  15  16  26  30  31  32  33  35 0
 6-311+G(2d,p)
 ****
 37  38 0
 6-311+G(2d,p)
 ****
 1  2  3  4  5  17  18  19  20  21  22  23  24  25 0
 3-21G
 ****
 27  28  29  34  36  39  40  41  42  43  44  45  46 0
 3-21G
 ****


