%nproc=1
%NoSave
%Mem=1900MB
#P OB98/GEN NMR

erre ene a

0 1
  C       68.037     -80.069      43.506
  O       68.232     -81.416      43.883
  H       68.632     -79.431      44.165
  H       66.984     -79.799      43.617
  H       68.356     -79.898      42.475
  P       67.692     -82.576      42.919
  C       68.484     -84.896      43.721
  O       67.499     -83.880      43.834
  C       69.681     -84.593      44.628
  O       69.191     -84.386      45.987
  C       70.727     -85.724      44.685
  O       72.008     -85.112      44.879
  C       70.284     -86.467      45.931
  O       71.266     -87.361      46.386
  C       69.939     -85.281      46.835
  N       69.178     -85.653      48.021
  C       69.886     -85.849      49.200
  O       71.103     -85.705      49.301
  N       69.144     -86.235      50.285
  C       67.795     -86.442      50.298
  O       67.175     -86.767      51.303
  C       67.105     -86.249      49.014
  C       67.817     -85.867      47.950
  O       68.471     -82.793      41.666
  O       66.185     -82.134      42.605
  H       66.150     -81.679      41.743
  H       71.648     -87.863      45.635
  H       69.642     -86.381      51.149
  H       66.038     -86.426      48.986
  H       67.342     -85.716      46.986
  H       70.846     -84.751      47.142
  H       69.392     -87.064      45.718
  H       70.746     -86.335      43.779
  H       70.137     -83.648      44.308
  H       68.812     -84.940      42.678
  H       68.043     -85.859      43.996
  P       72.871     -84.475      43.683
  C       73.659     -82.304      44.832
  O       74.042     -83.565      44.298
  O       72.044     -83.765      42.661
  O       73.651     -85.705      43.018
  H       73.717     -85.560      42.055
  H       74.524     -81.798      45.208
  H       72.958     -82.451      45.627
  H       73.207     -81.714      44.063

 6  7  8  9  10  11  12  13  14  15  16  27  31  32  33  34  35 0
 6-311+G(2d,p)
 ****
 36  37 0
 6-311+G(2d,p)
 ****
 1  2  3  4  5  17  18  19  20  21  22  23  24  25 0
 3-21G
 ****
 26  28  29  30  38  39  40  41  42  43  44  45 0
 3-21G
 ****


