%nproc=1
%NoSave
%Mem=1900MB
#P OB98/GEN NMR

erre ene a

0 1
  C     -855.327    -120.632    -413.584
  O     -856.562    -120.014    -413.282
  H     -855.212    -120.674    -414.669
  H     -855.314    -121.653    -413.188
  H     -854.498    -120.058    -413.158
  P     -856.856    -119.697    -411.740
  C     -859.075    -121.008    -411.236
  O     -858.451    -119.769    -411.536
  C     -860.594    -120.868    -411.341
  O     -861.083    -119.842    -410.463
  C     -861.080    -120.431    -412.718
  O     -860.950    -121.448    -413.687
  C     -862.514    -120.060    -412.396
  O     -863.345    -121.226    -412.302
  C     -862.356    -119.390    -411.007
  N     -862.432    -117.939    -411.072
  C     -863.716    -117.402    -411.215
  O     -864.696    -118.145    -411.266
  N     -863.849    -116.041    -411.329
  C     -862.799    -115.280    -411.281
  N     -862.999    -113.939    -411.407
  C     -861.431    -115.799    -411.106
  C     -861.320    -117.125    -411.021
  O     -856.559    -118.130    -411.644
  O     -856.099    -120.534    -410.765
  H     -864.105    -120.978    -411.740
  H     -857.040    -117.597    -412.295
  H     -860.586    -115.129    -411.062
  H     -860.352    -117.589    -410.892
  H     -863.136    -119.741    -410.317
  H     -862.951    -119.416    -413.163
  H     -860.552    -119.518    -413.027
  H     -861.045    -121.823    -411.041
  H     -863.953    -113.619    -411.545
  H     -858.787    -121.363    -410.242
  H     -862.259    -113.256    -411.418
  H     -858.715    -121.746    -411.966
  P     -859.690    -121.466    -414.685
  C     -861.607    -122.026    -416.313
  O     -860.213    -122.128    -416.056
  O     -858.450    -122.077    -414.134
  O     -859.528    -119.927    -415.100
  H     -860.306    -119.535    -415.541
  H     -861.833    -122.499    -417.246
  H     -861.887    -120.994    -416.359
  H     -862.151    -122.508    -415.528

 6  7  8  9  10  11  12  13  14  15  16  26  30  31  32  33  35 0
 6-311+G(2d,p)
 ****
 37  38 0
 6-311+G(2d,p)
 ****
 1  2  3  4  5  17  18  19  20  21  22  23  24  25 0
 3-21G
 ****
 27  28  29  34  36  39  40  41  42  43  44  45  46 0
 3-21G
 ****


