%nproc=1
%NoSave
%Mem=1900MB
#P OB98/GEN NMR

erre ene a

0 1
  C      -63.546    -268.929    -113.237
  O      -64.522    -269.621    -112.449
  P      -65.340    -270.813    -113.141
  C      -67.517    -269.386    -113.060
  O      -66.896    -270.637    -112.792
  C      -68.952    -269.375    -112.527
  O      -69.771    -270.365    -113.179
  C      -69.055    -269.682    -111.041
  O      -68.793    -268.531    -110.251
  C      -70.518    -270.080    -110.922
  O      -71.343    -268.899    -110.881
  C      -70.753    -270.845    -112.230
  N      -72.971    -275.137    -110.531
  C      -73.354    -273.842    -110.477
  N      -72.701    -272.753    -110.936
  C      -71.541    -273.104    -111.513
  C      -71.019    -274.380    -111.640
  C      -71.787    -275.432    -111.116
  N      -71.393    -276.749    -111.175
  N      -69.796    -274.348    -112.281
  C      -69.593    -273.075    -112.550
  N      -70.615    -272.284    -112.097
  O      -64.915    -272.091    -112.275
  O      -65.027    -271.002    -114.587
  H      -71.182    -268.470    -110.020
  H      -64.877    -272.881    -112.848
  H      -74.314    -273.655    -110.004
  H      -68.730    -272.681    -113.069
  H      -71.745    -270.650    -112.653
  H      -70.728    -270.646    -110.011
  H      -68.410    -270.527    -110.768
  H      -69.380    -268.384    -112.729
  H      -67.513    -269.188    -114.135
  H      -72.010    -277.452    -110.804
  H      -70.521    -276.978    -111.632
  H      -66.921    -268.590    -112.600
  P      -67.265    -268.249    -109.848
  C      -67.841    -269.018    -107.435
  O      -67.270    -268.024    -108.263
  O      -67.001    -266.789    -110.448
  O      -66.295    -269.255    -110.369
  H      -66.059    -266.696    -110.697
  H      -67.496    -268.861    -106.410
  H      -67.545    -270.018    -107.755
  H      -68.932    -268.932    -107.457
  H      -63.085    -268.166    -112.645
  H      -64.023    -268.483    -114.085
  H      -62.801    -269.621    -113.570

 3  4  5  6  7  8  9  10  11  12  22  25  29  30  31  32 0
 6-311+G(2d,p)
 ****
 33  36  37 0
 6-311+G(2d,p)
 ****
 1  2  13  14  15  16  17  18  19  20  21  23  24  26 0
 3-21G
 ****
 27  28  34  35  38  39  40  41  42  43  44  45  46  47  48 0
 3-21G
 ****


