%nproc=1
%NoSave
%Mem=1900MB
#P OB98/GEN NMR

erre ene a

0 1
  C      -62.913     300.344    -230.763
  O      -62.628     301.614    -231.320
  P      -62.139     302.823    -230.395
  C      -59.879     303.176    -231.543
  O      -61.155     303.738    -231.274
  C      -59.173     303.913    -232.682
  O      -59.819     303.571    -233.942
  C      -59.188     305.443    -232.560
  O      -57.957     305.915    -233.117
  C      -60.344     305.841    -233.467
  O      -60.273     307.196    -233.891
  C      -60.174     304.814    -234.585
  N      -62.107     304.319    -239.294
  C      -60.849     304.541    -238.856
  N      -60.416     304.686    -237.588
  C      -61.441     304.579    -236.723
  C      -62.782     304.386    -237.019
  C      -63.106     304.230    -238.380
  N      -64.377     303.970    -238.840
  N      -63.535     304.387    -235.860
  C      -62.665     304.578    -234.890
  N      -61.384     304.638    -235.358
  O      -61.596     302.427    -229.061
  O      -63.441     303.739    -230.238
  H      -60.999     307.361    -234.518
  H      -63.814     303.634    -229.339
  H      -60.085     304.605    -239.626
  H      -62.912     304.685    -233.839
  H      -59.368     305.085    -235.274
  H      -61.292     305.700    -232.935
  H      -59.315     305.807    -231.536
  H      -58.141     303.545    -232.741
  H      -60.025     302.129    -231.832
  H      -64.475     303.748    -239.818
  H      -65.079     303.637    -238.181
  H      -59.259     303.201    -230.637
  P      -56.866     306.612    -232.170
  C      -54.834     306.059    -233.623
  O      -55.673     307.086    -233.126
  O      -56.458     305.819    -230.974
  O      -57.565     307.995    -231.751
  H      -57.116     308.364    -230.966
  H      -54.105     305.780    -232.859
  H      -54.303     306.430    -234.505
  H      -55.417     305.178    -233.904
  H      -63.223     299.676    -231.539
  H      -63.696     300.439    -230.040
  H      -62.035     299.957    -230.289

 3  4  5  6  7  8  9  10  11  12  22  25  29  30  31  32 0
 6-311+G(2d,p)
 ****
 33  36  37 0
 6-311+G(2d,p)
 ****
 1  2  13  14  15  16  17  18  19  20  21  23  24  26 0
 3-21G
 ****
 27  28  34  35  38  39  40  41  42  43  44  45  46  47  48 0
 3-21G
 ****


