%nproc=1
%NoSave
%Mem=1900MB
#P OB98/GEN NMR

erre ene a

0 1
  C     -574.177    -415.265      72.111
  O     -573.343    -415.744      73.191
  P     -571.754    -415.604      73.023
  C     -571.541    -414.197      75.189
  O     -571.114    -415.338      74.468
  C     -571.629    -414.508      76.689
  O     -572.746    -415.346      77.008
  C     -570.404    -415.262      77.219
  O     -569.313    -414.385      77.506
  C     -570.953    -415.846      78.513
  O     -570.957    -414.838      79.540
  C     -572.398    -416.210      78.113
  N     -573.202    -420.978      79.771
  C     -573.033    -419.809      80.447
  N     -572.807    -418.583      79.928
  C     -572.762    -418.624      78.590
  C     -572.914    -419.745      77.771
  C     -573.135    -420.973      78.426
  N     -573.300    -422.155      77.737
  N     -572.797    -419.406      76.445
  C     -572.605    -418.096      76.437
  N     -572.573    -417.594      77.715
  O     -571.574    -414.206      72.270
  O     -571.136    -416.722      72.243
  H     -570.063    -414.441      79.569
  H     -570.821    -414.245      71.664
  H     -573.093    -419.874      81.521
  H     -572.485    -417.486      75.570
  H     -573.110    -415.999      78.933
  H     -570.358    -416.675      78.883
  H     -570.111    -416.072      76.542
  H     -571.727    -413.563      77.239
  H     -572.516    -413.861      74.837
  H     -573.493    -422.990      78.272
  H     -573.292    -422.148      76.734
  H     -570.830    -413.371      75.000
  P     -567.850    -415.028      77.618
  C     -566.864    -413.602      75.697
  O     -566.840    -413.918      77.062
  O     -567.856    -416.149      76.476
  O     -567.538    -415.602      78.948
  H     -567.276    -416.900      76.723
  H     -566.346    -412.633      75.552
  H     -567.887    -413.489      75.329
  H     -566.345    -414.374      75.112
  H     -575.206    -415.421      72.359
  H     -573.941    -415.799      71.214
  H     -574.001    -414.220      71.961

 3  4  5  6  7  8  9  10  11  12  22  25  29  30  31  32 0
 6-311+G(2d,p)
 ****
 33  36  37 0
 6-311+G(2d,p)
 ****
 1  2  13  14  15  16  17  18  19  20  21  23  24  26 0
 3-21G
 ****
 27  28  34  35  38  39  40  41  42  43  44  45  46  47  48 0
 3-21G
 ****


