%nproc=1
%NoSave
%Mem=1900MB
#P OB98/GEN NMR

erre ene a

0 1
  C     -156.011    -579.221     319.016
  O     -156.627    -579.880     317.925
  P     -156.097    -581.301     317.405
  C     -156.422    -580.358     315.039
  O     -155.542    -581.025     315.924
  C     -155.964    -580.551     313.590
  O     -154.845    -579.669     313.346
  C     -155.454    -581.952     313.238
  O     -156.484    -582.879     312.891
  C     -154.618    -581.647     312.006
  O     -155.477    -581.478     310.856
  C     -153.971    -580.313     312.378
  N     -148.978    -579.396     311.733
  C     -150.063    -579.066     310.995
  N     -151.361    -579.375     311.221
  C     -151.482    -580.035     312.377
  C     -150.482    -580.433     313.236
  C     -149.164    -580.088     312.886
  N     -148.065    -580.395     313.657
  N     -151.008    -581.122     314.318
  C     -152.307    -581.129     314.111
  N     -152.650    -580.476     312.952
  O     -157.085    -582.416     317.532
  O     -154.768    -581.554     318.244
  H     -155.955    -580.632     310.981
  H     -154.515    -582.499     318.201
  H     -149.861    -578.507     310.082
  H     -153.040    -581.583     314.761
  H     -153.884    -579.630     311.519
  H     -153.917    -582.454     311.766
  H     -154.810    -582.354     314.026
  H     -156.783    -580.254     312.922
  H     -156.404    -579.282     315.276
  H     -147.188    -579.999     313.386
  H     -148.227    -580.767     314.582
  H     -157.450    -580.717     315.178
  P     -156.359    -584.364     313.491
  C     -157.717    -585.224     311.433
  O     -156.577    -585.351     312.245
  O     -157.220    -584.626     314.679
  O     -154.780    -584.490     313.794
  H     -154.215    -584.503     313.013
  H     -157.601    -585.871     310.547
  H     -157.849    -584.203     311.090
  H     -158.606    -585.550     311.976
  H     -156.512    -578.294     319.202
  H     -154.984    -579.031     318.784
  H     -156.071    -579.840     319.887

 3  4  5  6  7  8  9  10  11  12  22  25  29  30  31  32 0
 6-311+G(2d,p)
 ****
 33  36  37 0
 6-311+G(2d,p)
 ****
 1  2  13  14  15  16  17  18  19  20  21  23  24  26 0
 3-21G
 ****
 27  28  34  35  38  39  40  41  42  43  44  45  46  47  48 0
 3-21G
 ****


