%nproc=1
%NoSave
%Mem=1900MB
#P OB98/GEN NMR

erre ene a

0 1
  C      -59.351     173.680     -40.208
  O      -58.622     174.827     -40.598
  P      -57.157     174.666     -41.222
  C      -55.953     175.491     -39.107
  O      -56.135     174.408     -40.013
  C      -55.254     175.010     -37.839
  O      -56.085     174.064     -37.133
  C      -53.938     174.287     -38.093
  O      -52.907     175.206     -38.396
  C      -53.753     173.535     -36.779
  O      -53.194     174.400     -35.776
  C      -55.202     173.165     -36.423
  N      -54.846     168.323     -34.860
  C      -54.287     169.462     -34.398
  N      -54.398     170.714     -34.895
  C      -55.167     170.714     -35.997
  C      -55.773     169.628     -36.608
  C      -55.612     168.382     -35.978
  N      -56.226     167.224     -36.403
  N      -56.452     170.028     -37.742
  C      -56.248     171.328     -37.819
  N      -55.534     171.794     -36.752
  O      -56.749     175.738     -42.178
  O      -57.209     173.244     -41.956
  H      -52.230     174.431     -35.927
  H      -57.038     173.366     -42.909
  H      -53.675     169.357     -33.506
  H      -56.610     171.973     -38.610
  H      -55.406     173.303     -35.354
  H      -53.086     172.675     -36.876
  H      -54.061     173.562     -38.908
  H      -55.099     175.877     -37.182
  H      -56.938     175.900     -38.855
  H      -56.158     166.421     -35.797
  H      -57.021     167.305     -37.031
  H      -55.361     176.274     -39.590
  P      -51.801     174.834     -39.495
  C      -49.951     174.642     -37.730
  O      -50.674     173.976     -38.748
  O      -51.299     175.971     -40.320
  O      -52.536     173.735     -40.405
  H      -52.211     173.806     -41.322
  H      -49.200     175.297     -38.181
  H      -49.448     173.897     -37.109
  H      -50.622     175.234     -37.100
  H      -60.301     173.978     -39.816
  H      -58.805     173.149     -39.456
  H      -59.498     173.045     -41.057

 3  4  5  6  7  8  9  10  11  12  22  25  29  30  31  32 0
 6-311+G(2d,p)
 ****
 33  36  37 0
 6-311+G(2d,p)
 ****
 1  2  13  14  15  16  17  18  19  20  21  23  24  26 0
 3-21G
 ****
 27  28  34  35  38  39  40  41  42  43  44  45  46  47  48 0
 3-21G
 ****


