%nproc=1
%NoSave
%Mem=1900MB
#P OB98/GEN NMR

erre ene a

0 1
  C     -177.552     218.930     663.084
  O     -176.154     218.739     663.320
  P     -175.592     218.781     664.816
  C     -175.013     221.294     665.029
  O     -174.520     219.964     664.946
  C     -173.922     222.229     665.554
  O     -173.530     221.887     666.901
  C     -172.632     222.152     664.744
  O     -172.672     222.670     663.431
  C     -171.616     222.746     665.700
  O     -171.614     224.169     665.648
  C     -172.141     222.249     667.068
  N     -171.359     221.133     667.604
  C     -170.088     221.450     668.063
  O     -169.598     222.578     667.993
  N     -169.368     220.398     668.577
  C     -169.772     219.102     668.642
  O     -169.077     218.198     669.090
  C     -171.120     218.828     668.122
  C     -171.842     219.841     667.630
  O     -175.173     217.468     665.391
  O     -176.845     219.369     665.641
  H     -171.458     224.426     664.719
  H     -176.900     218.879     666.483
  H     -168.442     220.613     668.923
  H     -171.474     217.807     668.149
  H     -172.838     219.666     667.241
  H     -172.118     223.062     667.802
  H     -170.598     222.419     665.460
  H     -172.379     221.084     664.631
  H     -174.315     223.251     665.576
  H     -175.888     221.325     665.692
  H     -175.369     221.606     664.038
  P     -172.906     221.758     662.132
  C     -170.464     221.669     661.259
  O     -171.784     222.127     661.050
  O     -174.305     221.616     661.639
  O     -172.391     220.327     662.653
  H     -172.931     219.630     662.221
  H     -169.833     222.020     660.442
  H     -170.433     220.575     661.276
  H     -170.070     222.069     662.198
  H     -177.748     218.871     662.034
  H     -177.847     219.892     663.448
  H     -178.107     218.170     663.594

 3  4  5  6  7  8  9  10  11  12  13  23  28  29  30  31  32 0
 6-311+G(2d,p)
 ****
 33  34 0
 6-311+G(2d,p)
 ****
 1  2  14  15  16  17  18  19  20  21  22  24  25  26  27 0
 3-21G
 ****
 35  36  37  38  39  40  41  42  43  44  45 0
 3-21G
 ****


