%nproc=1
%NoSave
%Mem=1900MB
#P OB98/GEN NMR

erre ene a

0 1
  C       36.179    -209.699     243.092
  O       35.914    -208.847     244.187
  P       34.505    -208.096     244.312
  C       34.579    -208.136     246.891
  O       34.560    -207.324     245.719
  C       34.093    -207.347     248.109
  O       32.887    -206.625     247.795
  C       33.757    -208.213     249.313
  O       34.940    -208.632     249.977
  C       32.880    -207.266     250.120
  O       33.675    -206.356     250.902
  C       32.118    -206.509     249.012
  N       30.756    -207.001     248.841
  C       29.736    -206.058     249.025
  O       30.012    -204.899     249.344
  N       28.430    -206.460     248.890
  C       28.167    -207.704     248.616
  N       26.856    -208.047     248.509
  C       29.209    -208.736     248.446
  C       30.470    -208.319     248.574
  O       33.301    -208.952     244.099
  O       34.634    -206.903     243.249
  H       34.240    -205.872     250.267
  H       34.551    -207.238     242.322
  H       28.941    -209.759     248.232
  H       31.296    -209.010     248.469
  H       32.068    -205.435     249.244
  H       32.228    -207.801     250.821
  H       33.162    -209.080     248.997
  H       34.870    -206.617     248.374
  H       26.172    -207.315     248.663
  H       35.604    -208.468     247.063
  H       26.539    -208.991     248.331
  H       33.954    -209.019     246.728
  P       34.999    -210.073     250.669
  C       37.559    -210.072     250.510
  O       36.439    -210.227     251.357
  O       34.582    -211.217     249.803
  O       34.015    -209.925     251.926
  H       33.454    -210.718     251.983
  H       38.441    -209.865     251.125
  H       37.416    -209.245     249.808
  H       37.727    -210.993     249.955
  H       37.165    -210.104     243.186
  H       36.107    -209.142     242.181
  H       35.465    -210.496     243.079

 3  4  5  6  7  8  9  10  11  12  13  23  27  28  29  30  32 0
 6-311+G(2d,p)
 ****
 34  35 0
 6-311+G(2d,p)
 ****
 1  2  14  15  16  17  18  19  20  21  22  24  25  26 0
 3-21G
 ****
 31  33  36  37  38  39  40  41  42  43  44  45  46 0
 3-21G
 ****


