%nproc=1
%NoSave
%Mem=1900MB
#P OB98/GEN NMR

erre ene a

0 1
  C       41.664     -63.722     -12.174
  O       42.957     -64.011     -11.681
  H       40.962     -63.724     -11.335
  H       41.347     -64.480     -12.895
  H       41.647     -62.733     -12.640
  P       44.160     -64.146     -12.729
  C       43.373     -66.540     -13.314
  O       43.703     -65.244     -13.803
  C       43.990     -67.621     -14.198
  O       43.364     -67.625     -15.496
  C       45.481     -67.437     -14.457
  O       46.234     -67.800     -13.318
  C       45.664     -68.330     -15.674
  O       45.729     -69.712     -15.293
  C       44.361     -68.040     -16.459
  N       44.522     -67.035     -17.504
  C       44.682     -67.523     -18.807
  O       44.696     -68.734     -19.019
  N       44.840     -66.618     -19.828
  C       44.798     -65.347     -19.583
  N       44.956     -64.505     -20.639
  C       44.597     -64.793     -18.230
  C       44.480     -65.683     -17.248
  O       45.521     -64.378     -12.148
  O       44.100     -62.780     -13.562
  H       44.831     -69.952     -14.990
  H       44.705     -62.118     -13.178
  H       44.559     -63.725     -18.073
  H       44.329     -65.359     -16.223
  H       43.984     -68.959     -16.927
  H       46.580     -68.105     -16.219
  H       45.690     -66.403     -14.754
  H       43.789     -68.594     -13.732
  H       45.071     -64.933     -21.552
  H       42.281     -66.620     -13.328
  H       44.780     -63.512     -20.593
  H       43.713     -66.660     -12.279
  P       47.524     -66.963     -12.863
  C       49.222     -68.857     -13.235
  O       48.759     -67.590     -13.676
  O       47.728     -66.863     -11.389
  O       47.325     -65.546     -13.578
  H       46.657     -65.004     -13.088
  H       50.041     -69.171     -13.848
  H       48.429     -69.571     -13.307
  H       49.545     -68.784     -12.218

 6  7  8  9  10  11  12  13  14  15  16  26  30  31  32  33  35 0
 6-311+G(2d,p)
 ****
 37  38 0
 6-311+G(2d,p)
 ****
 1  2  3  4  5  17  18  19  20  21  22  23  24  25 0
 3-21G
 ****
 27  28  29  34  36  39  40  41  42  43  44  45  46 0
 3-21G
 ****


