%nproc=1
%NoSave
%Mem=1900MB
#P OB98/GEN NMR

erre ene a

0 1
  C      607.391    -366.351     -83.527
  O      606.411    -367.319     -83.845
  H      607.943    -366.692     -82.646
  H      606.914    -365.397     -83.294
  H      608.093    -366.226     -84.358
  P      605.602    -367.098     -85.218
  C      604.632    -364.729     -84.625
  O      605.512    -365.509     -85.416
  C      604.177    -363.485     -85.392
  O      605.353    -362.813     -85.919
  C      603.244    -363.789     -86.566
  O      602.291    -362.731     -86.673
  C      604.175    -363.755     -87.769
  O      603.471    -363.493     -88.982
  C      605.174    -362.665     -87.347
  N      606.441    -362.767     -88.062
  C      606.595    -361.952     -89.185
  O      605.681    -361.210     -89.546
  N      607.759    -362.027     -89.911
  C      608.666    -362.893     -89.579
  N      609.791    -362.938     -90.349
  C      608.533    -363.800     -88.424
  C      607.408    -363.678     -87.713
  O      604.117    -367.513     -84.788
  O      606.143    -367.855     -86.380
  H      603.206    -362.549     -88.992
  H      603.844    -367.146     -83.930
  H      609.312    -364.514     -88.190
  H      607.229    -364.303     -86.842
  H      604.754    -361.667     -87.526
  H      604.685    -364.719     -87.878
  H      602.725    -364.742     -86.457
  H      603.706    -362.793     -84.683
  H      609.829    -362.310     -91.145
  H      605.125    -364.426     -83.697
  H      610.534    -363.603     -90.217
  H      603.771    -365.351     -84.365
  P      601.077    -362.657     -85.634
  C      599.591    -363.396     -87.616
  O      599.826    -363.469     -86.215
  O      600.762    -361.293     -85.107
  O      601.585    -363.607     -84.438
  H      601.339    -363.177     -83.591
  H      598.730    -363.981     -87.864
  H      600.443    -363.775     -88.141
  H      599.423    -362.377     -87.897

 6  7  8  9  10  11  12  13  14  15  16  26  30  31  32  33  35 0
 6-311+G(2d,p)
 ****
 37  38 0
 6-311+G(2d,p)
 ****
 1  2  3  4  5  17  18  19  20  21  22  23  24  25 0
 3-21G
 ****
 27  28  29  34  36  39  40  41  42  43  44  45  46 0
 3-21G
 ****


