%nproc=1
%NoSave
%Mem=1900MB
#P OB98/GEN NMR

erre ene a

0 1
  C     -321.363     -75.754    -297.965
  O     -319.998     -76.128    -297.846
  P     -318.822     -75.088    -298.182
  C     -318.011     -76.658    -300.049
  O     -318.466     -75.351    -299.722
  C     -317.692     -76.748    -301.538
  O     -318.878     -76.376    -302.282
  C     -316.596     -75.811    -302.045
  O     -315.274     -76.306    -301.876
  C     -316.928     -75.761    -303.528
  O     -316.444     -76.952    -304.175
  C     -318.458     -75.748    -303.518
  N     -321.804     -72.707    -305.913
  C     -321.513     -74.021    -306.052
  N     -320.597     -74.753    -305.387
  C     -319.970     -74.004    -304.471
  C     -320.158     -72.657    -304.207
  C     -321.130     -71.998    -304.978
  N     -321.437     -70.662    -304.816
  N     -319.313     -72.231    -303.199
  C     -318.639     -73.308    -302.855
  N     -319.003     -74.405    -303.586
  O     -317.674     -75.126    -297.234
  O     -319.551     -73.666    -298.217
  H     -315.481     -76.997    -304.009
  H     -318.892     -72.950    -298.152
  H     -322.099     -74.553    -306.800
  H     -317.877     -73.339    -302.090
  H     -318.890     -76.329    -304.343
  H     -316.465     -74.911    -304.042
  H     -316.699     -74.806    -301.618
  H     -317.456     -77.791    -301.781
  H     -318.810     -77.370    -299.809
  H     -322.236     -70.308    -305.321
  H     -321.053     -70.179    -304.018
  H     -317.135     -76.907    -299.443
  P     -314.067     -75.335    -302.311
  C     -313.252     -76.895    -304.248
  O     -313.794     -75.652    -303.857
  O     -312.875     -75.394    -301.422
  O     -314.767     -73.896    -302.345
  H     -315.434     -73.778    -303.041
  H     -313.294     -76.974    -305.337
  H     -313.821     -77.723    -303.818
  H     -312.208     -76.965    -303.930
  H     -321.985     -76.583    -297.698
  H     -321.567     -75.466    -298.975
  H     -321.566     -74.931    -297.312

 3  4  5  6  7  8  9  10  11  12  22  25  29  30  31  32 0
 6-311+G(2d,p)
 ****
 33  36  37 0
 6-311+G(2d,p)
 ****
 1  2  13  14  15  16  17  18  19  20  21  23  24  26 0
 3-21G
 ****
 27  28  34  35  38  39  40  41  42  43  44  45  46  47  48 0
 3-21G
 ****


