%nproc=1
%NoSave
%Mem=1900MB
#P OB98/GEN NMR

erre ene a

0 1
  C       32.508      76.605     -69.234
  O       32.515      75.379     -69.968
  P       33.234      74.132     -69.258
  C       35.212      74.046     -70.934
  O       34.103      73.365     -70.367
  C       35.819      73.233     -72.079
  O       36.320      71.956     -71.641
  C       34.828      72.931     -73.195
  O       34.683      74.063     -74.035
  C       35.494      71.751     -73.890
  O       36.487      72.193     -74.838
  C       36.161      71.004     -72.724
  N       34.939      66.181     -73.684
  C       35.583      67.107     -74.483
  N       35.979      66.679     -75.699
  N       35.818      68.340     -74.118
  C       35.368      68.628     -72.874
  C       34.743      67.789     -71.980
  C       34.486      66.428     -72.397
  O       33.940      65.565     -71.719
  N       34.491      68.424     -70.790
  C       34.848      69.675     -71.015
  N       35.445      69.837     -72.240
  O       32.022      73.132     -68.955
  O       33.968      74.499     -68.012
  H       36.938      71.414     -75.212
  H       31.857      73.093     -67.994
  H       34.777      65.247     -74.019
  H       34.721      70.490     -70.319
  H       37.165      70.655     -72.993
  H       34.775      71.153     -74.456
  H       35.832      65.743     -76.044
  H       33.865      72.623     -72.772
  H       36.459      67.341     -76.297
  H       36.664      73.809     -72.480
  H       35.970      74.228     -70.170
  H       34.880      75.028     -71.286
  P       33.340      74.927     -73.902
  C       32.820      74.590     -76.422
  O       32.992      75.501     -75.354
  O       33.819      76.217     -73.081
  O       32.222      74.229     -73.203
  H       33.163      76.424     -72.389
  H       32.117      75.018     -77.140
  H       32.431      73.629     -76.075
  H       33.781      74.432     -76.918
  H       32.005      77.359     -69.803
  H       33.515      76.913     -69.045
  H       31.999      76.461     -68.304

 3  4  5  6  7  8  9  10  11  12  23  26  30  31 0
 6-311+G(2d,p)
 ****
 33  35  36  37  38 0
 6-311+G(2d,p)
 ****
 1  2  13  14  15  16  17  18  19  20  21  22  24  25 0
 3-21G
 ****
 27  28  29  32  34  39  40  41  42  43  44  45  46  47  48  49 0
 3-21G
 ****


