%nproc=1
%NoSave
%Mem=1900MB
#P OB98/GEN NMR

erre ene a

0 1
  C      119.790     873.028     282.160
  O      120.079     874.143     281.332
  P      120.863     873.958     279.940
  C      123.152     873.517     281.064
  O      122.378     874.393     280.256
  C      124.552     874.087     281.239
  O      125.208     874.190     279.959
  C      124.597     875.490     281.842
  O      124.354     875.450     283.241
  C      125.989     875.939     281.429
  O      126.976     875.378     282.302
  C      126.121     875.317     280.022
  N      125.867     876.266     278.944
  C      126.664     876.142     277.812
  O      127.533     875.269     277.728
  N      126.448     877.007     276.759
  C      125.536     877.921     276.851
  N      125.322     878.702     275.756
  C      124.707     878.123     278.055
  C      124.929     877.265     279.056
  O      120.244     874.651     278.772
  O      120.988     872.375     279.760
  H      126.777     875.693     283.205
  H      120.216     871.966     279.294
  H      123.974     878.907     278.085
  H      124.346     877.329     279.964
  H      127.125     874.892     279.888
  H      126.113     877.025     281.423
  H      123.842     876.132     281.367
  H      125.128     873.383     281.863
  H      125.785     878.416     274.899
  H      123.218     872.552     280.549
  H      124.458     879.221     275.641
  H      122.656     873.375     282.027
  P      122.846     875.654     283.735
  C      123.035     878.233     283.521
  O      122.792     877.133     284.374
  O      122.736     874.675     285.001
  O      121.812     875.371     282.706
  H      122.270     873.857     284.750
  H      122.727     879.152     284.036
  H      122.450     878.148     282.596
  H      124.099     878.298     283.285
  H      119.267     873.358     283.033
  H      120.704     872.553     282.450
  H      119.181     872.332     281.622

 3  4  5  6  7  8  9  10  11  12  13  23  27  28  29  30  32 0
 6-311+G(2d,p)
 ****
 34  35 0
 6-311+G(2d,p)
 ****
 1  2  14  15  16  17  18  19  20  21  22  24  25  26 0
 3-21G
 ****
 31  33  36  37  38  39  40  41  42  43  44  45  46 0
 3-21G
 ****


