%nproc=1
%NoSave
%Mem=1900MB
#P OB98/GEN NMR

erre ene a

0 1
  C       77.501     -81.899    -152.354
  O       78.766     -82.079    -152.959
  H       76.768     -81.673    -153.133
  H       77.544     -81.053    -151.659
  H       77.185     -82.803    -151.825
  P       79.915     -82.739    -152.052
  C       80.985     -80.422    -151.561
  O       80.393     -81.599    -151.025
  C       82.012     -79.856    -150.590
  O       81.356     -79.223    -149.466
  C       82.964     -80.900    -150.001
  O       84.049     -81.175    -150.878
  C       83.440     -80.177    -148.752
  O       84.424     -79.179    -149.115
  C       82.154     -79.484    -148.276
  N       81.932     -81.404    -143.584
  C       82.950     -80.711    -144.208
  N       84.073     -80.504    -143.486
  N       82.880     -80.257    -145.436
  C       81.708     -80.561    -146.046
  C       80.629     -81.245    -145.533
  C       80.715     -81.729    -144.174
  O       79.836     -82.335    -143.569
  N       79.613     -81.360    -146.452
  C       80.089     -80.758    -147.526
  N       81.358     -80.259    -147.333
  O       81.143     -82.870    -153.078
  O       79.571     -84.061    -151.446
  H       85.225     -79.657    -149.396
  H       81.212     -83.798    -153.371
  H       82.046     -81.737    -142.641
  H       79.560     -80.646    -148.460
  H       82.354     -78.512    -147.798
  H       83.915     -80.842    -148.032
  H       84.206     -80.844    -142.545
  H       82.427     -81.817    -149.713
  H       84.832     -79.995    -143.923
  H       82.581     -79.072    -151.114
  H       80.197     -79.672    -151.737
  H       81.465     -80.664    -152.516
  P       84.158     -82.644    -151.516
  C       85.540     -83.368    -149.445
  O       84.448     -83.661    -150.308
  O       85.547     -82.584    -152.303
  O       83.034     -83.028    -152.427
  H       85.386     -82.611    -153.269
  H       85.613     -84.125    -148.693
  H       85.382     -82.417    -148.980
  H       86.446     -83.341    -150.013

 6  7  8  9  10  11  12  13  14  15  26  29  33  34 0
 6-311+G(2d,p)
 ****
 36  38  39  40  41 0
 6-311+G(2d,p)
 ****
 1  2  3  4  5  16  17  18  19  20  21  22  23  24  25 0
 3-21G
 ****
 27  28  30  31  32  35  37  42  43  44  45  46  47 0
 3-21G
 ****
 48  49 0
 3-21G
 ****


