%nproc=1
%NoSave
%Mem=1900MB
#P OB98/GEN NMR

erre ene a

0 1
  C       -5.631      22.927    -157.150
  O       -5.000      23.439    -155.988
  P       -3.504      24.002    -156.127
  C       -2.370      21.748    -155.510
  O       -2.540      22.768    -156.486
  C       -1.292      20.753    -155.946
  O       -1.499      20.395    -157.340
  C        0.135      21.298    -155.825
  O        1.025      20.224    -155.480
  C        0.471      21.731    -157.237
  O        1.881      21.763    -157.454
  C       -0.269      20.665    -158.046
  N        1.332      20.439    -162.838
  C        1.696      19.666    -161.751
  N        2.686      18.769    -161.960
  N        1.139      19.758    -160.573
  C        0.168      20.704    -160.515
  C       -0.293      21.521    -161.522
  C        0.344      21.416    -162.818
  O        0.087      22.091    -163.812
  N       -1.314      22.328    -161.091
  C       -1.445      22.033    -159.809
  N       -0.545      21.081    -159.406
  O       -3.115      24.357    -154.613
  O       -3.367      25.198    -157.008
  H        2.255      20.974    -157.017
  H       -3.135      25.326    -154.485
  H        1.800      20.338    -163.723
  H       -2.152      22.495    -159.131
  H        0.299      19.727    -158.089
  H        0.072      22.731    -157.432
  H        3.202      18.695    -162.823
  H        0.249      22.111    -155.098
  H        3.002      18.221    -161.168
  H       -1.408      19.834    -155.358
  H       -3.315      21.218    -155.380
  H       -2.097      22.201    -154.550
  P        2.057      20.524    -154.284
  C        4.066      20.695    -155.933
  O        3.276      21.328    -154.949
  O        2.680      19.083    -153.969
  O        1.435      21.156    -153.083
  H        2.993      19.048    -153.043
  H        3.957      21.236    -156.879
  H        3.777      19.651    -156.090
  H        5.113      20.727    -155.623
  H       -6.616      22.591    -156.902
  H       -5.061      22.107    -157.534
  H       -5.692      23.696    -157.891

 3  4  5  6  7  8  9  10  11  12  23  26  30  31 0
 6-311+G(2d,p)
 ****
 33  35  36  37  38 0
 6-311+G(2d,p)
 ****
 1  2  13  14  15  16  17  18  19  20  21  22  24  25 0
 3-21G
 ****
 27  28  29  32  34  39  40  41  42  43  44  45  46  47  48  49 0
 3-21G
 ****


