%nproc=1
%NoSave
%Mem=1900MB
#P OB98/GEN NMR

erre ene a

0 1
  C      270.051      11.838    -169.380
  O      269.343      11.091    -170.356
  P      269.992       9.705    -170.845
  C      270.298       7.435    -169.620
  O      270.292       8.854    -169.518
  C      270.896       6.789    -168.370
  O      272.336       6.930    -168.410
  C      270.396       7.392    -167.055
  O      270.271       6.332    -166.107
  C      271.533       8.302    -166.630
  O      271.534       8.523    -165.222
  C      272.749       7.530    -167.167
  N      273.913       8.392    -167.350
  C      275.153       7.760    -167.480
  O      275.238       6.538    -167.359
  N      276.269       8.531    -167.690
  C      276.171       9.824    -167.664
  N      277.304      10.542    -167.881
  C      274.901      10.530    -167.405
  C      273.820       9.762    -167.280
  O      271.448      10.147    -171.337
  O      269.222       9.000    -171.911
  H      271.738       7.669    -164.780
  H      271.750       9.585    -172.075
  H      274.880      11.609    -167.358
  H      272.844      10.193    -167.112
  H      273.024       6.718    -166.480
  H      271.443       9.272    -167.133
  H      269.438       7.909    -167.162
  H      270.674       5.714    -168.402
  H      278.166      10.036    -168.040
  H      270.908       7.143    -170.480
  H      277.323      11.554    -167.877
  H      269.278       7.079    -169.791
  P      269.073       6.422    -165.044
  C      266.544       6.810    -165.247
  O      267.797       6.885    -165.898
  O      269.442       7.774    -164.262
  O      268.880       5.287    -164.096
  H      268.812       7.914    -163.533
  H      265.790       7.279    -165.885
  H      266.575       7.340    -164.291
  H      266.268       5.763    -165.090
  H      269.507      12.730    -169.150
  H      271.017      12.097    -169.761
  H      270.163      11.250    -168.493

 3  4  5  6  7  8  9  10  11  12  13  21  23  27  28  29  30  32 0
 6-311+G(2d,p)
 ****
 34  35 0
 6-311+G(2d,p)
 ****
 1  2  14  15  16  17  18  19  20  22  24  25  26 0
 3-21G
 ****
 31  33  36  37  38  39  40  41  42  43  44  45  46 0
 3-21G
 ****


