%nproc=1
%NoSave
%Mem=1900MB
#P OB98/GEN NMR

erre ene a

0 1
  C       72.314    -191.243     -38.942
  O       71.979    -190.601     -37.725
  H       71.404    -191.373     -39.532
  H       72.748    -192.226     -38.742
  H       73.018    -190.629     -39.510
  P       73.192    -190.294     -36.721
  C       72.096    -188.037     -36.082
  O       72.560    -189.303     -35.630
  C       71.500    -187.239     -34.923
  O       70.350    -187.915     -34.382
  C       72.451    -187.038     -33.748
  O       73.348    -185.966     -34.002
  C       71.465    -186.693     -32.641
  O       71.068    -185.313     -32.753
  C       70.270    -187.610     -32.964
  N       69.198    -189.807     -28.446
  C       69.298    -188.511     -28.812
  N       69.629    -188.001     -30.021
  C       69.870    -188.983     -30.903
  C       69.807    -190.350     -30.674
  C       69.442    -190.757     -29.381
  N       69.332    -192.083     -29.014
  N       70.120    -191.054     -31.818
  C       70.318    -190.128     -32.735
  N       70.213    -188.858     -32.222
  O       74.465    -189.853     -37.359
  O       73.279    -191.678     -35.916
  H       70.469    -185.240     -33.522
  H       72.387    -192.032     -35.748
  H       69.085    -187.787     -28.034
  H       70.520    -190.321     -33.783
  H       69.312    -187.103     -32.791
  H       71.895    -186.823     -31.646
  H       72.973    -187.963     -33.488
  H       71.157    -186.275     -35.320
  H       71.346    -188.166     -36.869
  H       69.233    -192.287     -28.030
  H       69.634    -192.785     -29.672
  H       72.954    -187.504     -36.504
  P       74.809    -185.950     -33.342
  C       75.609    -185.055     -35.617
  O       75.689    -184.917     -34.202
  O       75.433    -187.291     -33.156
  O       74.615    -185.187     -31.951
  H       75.167    -185.596     -31.257
  H       76.232    -184.320     -36.083
  H       74.596    -184.916     -35.932
  H       75.939    -186.033     -35.899

 6  7  8  9  10  11  12  13  14  15  25  28  32  33  34  35 0
 6-311+G(2d,p)
 ****
 36  39  40 0
 6-311+G(2d,p)
 ****
 1  2  3  4  5  16  17  18  19  20  21  22  23  24 0
 3-21G
 ****
 26  27  29  30  31  37  38  41  42  43  44  45  46  47 0
 3-21G
 ****
 48 0
 3-21G
 ****


