%nproc=1
%NoSave
%Mem=1900MB
#P OB98/GEN NMR

erre ene a

0 1
  C       13.570      85.685      -3.865
  O       14.227      86.927      -4.123
  P       13.414      88.294      -3.928
  C       13.046      88.328      -6.478
  O       12.455      88.509      -5.199
  C       12.154      88.918      -7.579
  O       10.885      88.205      -7.647
  C       11.827      90.398      -7.339
  O       11.703      91.095      -8.589
  C       10.452      90.340      -6.702
  O        9.761      91.581      -6.828
  C        9.832      89.175      -7.471
  N        4.732      89.137      -7.018
  C        5.554      89.797      -7.864
  N        6.900      89.740      -7.941
  C        7.392      88.884      -7.031
  C        6.677      88.134      -6.110
  C        5.281      88.290      -6.116
  N        4.447      87.641      -5.236
  N        7.525      87.371      -5.332
  C        8.734      87.692      -5.747
  N        8.704      88.575      -6.791
  O       14.229      89.483      -3.547
  O       12.368      87.921      -2.771
  H        8.838      91.431      -6.550
  H       12.306      88.668      -2.145
  H        5.064      90.463      -8.569
  H        9.657      87.327      -5.320
  H        9.495      89.481      -8.469
  H       10.546      90.106      -5.636
  H       12.550      90.928      -6.712
  H       12.648      88.785      -8.548
  H       13.208      87.263      -6.661
  H        3.472      87.903      -5.239
  H        4.853      87.125      -4.467
  H       14.040      88.788      -6.482
  P       12.988      91.947      -9.052
  C       12.204      93.731      -7.310
  O       13.265      92.993      -7.872
  O       12.861      92.520     -10.425
  O       14.164      90.871      -8.912
  H       14.191      90.405      -8.060
  H       12.579      94.283      -6.445
  H       11.401      93.068      -6.978
  H       11.816      94.446      -8.040
  H       14.250      84.878      -4.043
  H       12.724      85.588      -4.513
  H       13.244      85.659      -2.846

 3  4  5  6  7  8  9  10  11  12  22  25  29  30  31  32 0
 6-311+G(2d,p)
 ****
 33  36  37 0
 6-311+G(2d,p)
 ****
 1  2  13  14  15  16  17  18  19  20  21  23  24  26 0
 3-21G
 ****
 27  28  34  35  38  39  40  41  42  43  44  45  46  47  48 0
 3-21G
 ****


