%nproc=1
%NoSave
%Mem=1900MB
#P OB98/GEN NMR

erre ene a

0 1
  C     -891.470    -101.305    -899.427
  O     -891.930    -101.885    -898.207
  P     -890.940    -102.499    -897.097
  C     -892.020    -101.826    -894.857
  O     -890.970    -101.573    -895.797
  C     -892.920    -100.577    -894.687
  O     -893.580    -100.266    -895.937
  C     -894.050    -100.746    -893.677
  O     -893.550    -100.663    -892.347
  C     -894.990     -99.622    -894.087
  O     -894.560     -98.359    -893.527
  C     -894.830     -99.617    -895.627
  N     -895.940    -100.276    -896.287
  C     -897.130     -99.540    -896.377
  O     -897.220     -98.432    -895.847
  N     -898.200    -100.098    -897.047
  C     -898.110    -101.307    -897.517
  N     -899.190    -101.803    -898.177
  C     -896.900    -102.135    -897.367
  C     -895.860    -101.568    -896.757
  O     -889.570    -102.797    -897.617
  O     -891.660    -103.854    -896.627
  H     -893.590     -98.329    -893.597
  H     -890.980    -104.494    -896.347
  H     -896.870    -103.154    -897.747
  H     -894.940    -102.110    -896.607
  H     -894.740     -98.588    -895.997
  H     -896.000     -99.786    -893.757
  H     -894.550    -101.709    -893.827
  H     -892.280     -99.732    -894.417
  H     -900.000    -101.200    -898.267
  H     -891.560    -102.064    -893.877
  H     -899.230    -102.731    -898.587
  H     -892.610    -102.677    -895.197
  P     -893.060    -101.986    -891.587
  C     -890.660    -101.196    -891.137
  O     -891.480    -102.129    -891.827
  O     -893.850    -103.223    -891.857
  O     -893.140    -101.582    -890.037
  H     -893.360    -102.387    -889.507
  H     -889.650    -101.618    -891.057
  H     -891.040    -100.997    -890.137
  H     -890.610    -100.261    -891.717
  H     -892.308    -100.968    -900.000
  H     -890.926    -102.037    -899.987
  H     -890.831    -100.475    -899.209

 3  4  5  6  7  8  9  10  11  12  13  23  27  28  29  30  32 0
 6-311+G(2d,p)
 ****
 34  35 0
 6-311+G(2d,p)
 ****
 1  2  14  15  16  17  18  19  20  21  22  24  25  26 0
 3-21G
 ****
 31  33  36  37  38  39  40  41  42  43  44  45  46 0
 3-21G
 ****


