%nproc=1
%NoSave
%Mem=1900MB
#P OB98/GEN NMR

erre ene a

0 1
  C     -265.178     222.214     -64.054
  O     -266.166     221.183     -64.065
  P     -265.707     219.656     -64.206
  C     -267.758     218.444     -63.218
  O     -267.008     218.733     -64.390
  C     -268.846     219.507     -62.985
  O     -269.851     219.416     -64.031
  C     -269.553     219.345     -61.631
  O     -269.596     220.556     -60.875
  C     -270.898     218.745     -62.005
  O     -271.902     218.990     -61.033
  C     -271.145     219.316     -63.409
  N     -272.070     218.478     -64.183
  C     -273.422     218.751     -64.042
  O     -273.862     219.588     -63.253
  N     -274.272     217.981     -64.792
  C     -273.907     216.939     -65.592
  O     -274.709     216.250     -66.209
  C     -272.464     216.657     -65.654
  C     -271.625     217.429     -64.959
  O     -264.729     219.174     -63.187
  O     -265.052     219.617     -65.675
  H     -271.849     219.932     -60.761
  H     -264.268     219.032     -65.638
  H     -275.256     218.179     -64.711
  H     -272.140     215.824     -66.262
  H     -270.561     217.237     -64.977
  H     -271.581     220.317     -63.356
  H     -270.782     217.659     -62.083
  H     -269.017     218.647     -60.979
  H     -268.362     220.485     -63.050
  H     -267.091     218.424     -62.357
  H     -268.184     217.438     -63.301
  P     -268.953     220.741     -59.423
  C     -267.391     222.766     -59.864
  O     -268.566     222.283     -59.240
  O     -267.875     219.775     -59.065
  O     -270.207     220.556     -58.448
  H     -269.932     220.042     -57.662
  H     -267.080     223.683     -59.355
  H     -267.600     222.992     -60.909
  H     -266.581     222.033     -59.799
  H     -265.657     223.166     -63.954
  H     -264.625     222.188     -64.970
  H     -264.512     222.061     -63.231

 3  4  5  6  7  8  9  10  11  12  13  23  28  29  30  31  32 0
 6-311+G(2d,p)
 ****
 33  34 0
 6-311+G(2d,p)
 ****
 1  2  14  15  16  17  18  19  20  21  22  24  25  26  27 0
 3-21G
 ****
 35  36  37  38  39  40  41  42  43  44  45 0
 3-21G
 ****


