%nproc=1
%NoSave
%Mem=1900MB
#P OB98/GEN NMR

erre ene a

0 1
  C     -219.328     -27.612     299.127
  O     -219.300     -26.213     299.387
  P     -219.843     -25.708     300.806
  C     -217.776     -24.156     300.970
  O     -219.196     -24.259     301.054
  C     -217.359     -22.740     300.586
  O     -217.715     -22.505     299.193
  C     -218.019     -21.635     301.421
  O     -217.034     -20.649     301.766
  C     -218.997     -20.989     300.452
  O     -219.279     -19.638     300.801
  C     -218.238     -21.163     299.136
  N     -220.933     -17.815     296.482
  C     -220.037     -17.606     297.515
  N     -219.886     -16.332     297.934
  N     -219.359     -18.565     298.089
  C     -219.588     -19.785     297.547
  C     -220.436     -20.112     296.516
  C     -221.230     -19.053     295.931
  O     -222.102     -19.186     295.079
  N     -220.385     -21.459     296.236
  C     -219.504     -21.941     297.093
  N     -219.030     -20.973     297.941
  O     -219.073     -26.655     301.841
  O     -221.321     -25.799     300.994
  H     -219.845     -19.270     300.096
  H     -219.716     -27.121     302.412
  H     -221.442     -17.043     296.090
  H     -219.205     -22.982     297.158
  H     -217.390     -20.466     299.088
  H     -219.933     -21.556     300.457
  H     -220.356     -15.541     297.517
  H     -218.514     -21.994     302.333
  H     -219.220     -16.157     298.677
  H     -216.265     -22.672     300.647
  H     -217.411     -24.862     300.212
  H     -217.347     -24.428     301.941
  P     -217.165     -20.001     303.234
  C     -214.573     -19.792     303.400
  O     -215.833     -19.145     303.455
  O     -216.975     -21.263     304.210
  O     -218.455     -19.288     303.468
  H     -217.403     -21.092     305.067
  H     -214.655     -20.828     303.044
  H     -214.137     -19.799     304.398
  H     -213.917     -19.235     302.724
  H     -218.938     -27.801     298.149
  H     -220.336     -27.965     299.183
  H     -218.731     -28.122     299.854

 3  4  5  6  7  8  9  10  11  12  23  26  30  31  33  0
 6-311+G(2d,p)
 ****
 35  36  37  38 0
 6-311+G(2d,p)
 ****
 1  2  13  14  15  16  17  18  19  20  21  22  24  25  27  28  29 0
 3-21G
 ****
 32  34  39  40  41  42  43  44  45  46  47  48  49 0
 3-21G
 ****


