%nproc=1
%NoSave
%Mem=1900MB
#P OB98/GEN NMR

erre ene a

0 1
  C      306.801    -309.237      48.565
  O      306.232    -310.360      47.877
  P      304.729    -310.769      48.249
  C      303.722    -309.861      46.006
  O      303.791    -309.765      47.421
  C      302.315    -310.271      45.575
  O      301.384    -309.178      45.767
  C      302.192    -310.641      44.106
  O      302.753    -311.927      43.854
  C      300.686    -310.547      43.904
  O      300.043    -311.737      44.388
  C      300.321    -309.349      44.807
  N      300.077    -308.123      44.056
  C      298.749    -307.666      44.056
  O      297.839    -308.260      44.618
  N      298.521    -306.518      43.346
  C      299.452    -305.806      42.641
  O      299.189    -304.766      42.041
  C      300.810    -306.362      42.644
  C      301.061    -307.474      43.339
  O      304.631    -310.253      49.759
  O      304.457    -312.221      48.057
  H      305.133    -309.436      49.910
  H      300.354    -311.867      45.312
  H      297.576    -306.166      43.343
  H      301.571    -305.840      42.075
  H      302.055    -307.906      43.343
  H      299.418    -309.576      45.387
  H      300.411    -310.437      42.857
  H      302.700    -309.890      43.486
  H      301.999    -311.105      46.208
  H      304.435    -310.611      45.650
  H      304.013    -308.901      45.572
  P      304.216    -311.958      43.193
  C      305.336    -312.718      45.445
  O      305.260    -311.770      44.400
  O      304.255    -310.552      42.437
  O      304.465    -313.146      42.321
  H      303.901    -309.825      42.964
  H      306.296    -312.607      45.941
  H      305.248    -313.736      45.056
  H      304.531    -312.529      46.164
  H      307.802    -309.077      48.221
  H      306.812    -309.432      49.617
  H      306.213    -308.364      48.370

 3  4  5  6  7  8  9  10  11  12  13  24  28  29  30  31  32 0
 6-311+G(2d,p)
 ****
 33  34 0
 6-311+G(2d,p)
 ****
 1  2  14  15  16  17  18  19  20  21  22  23  25  26  27 0
 3-21G
 ****
 35  36  37  38  39  40  41  42  43  44  45 0
 3-21G
 ****


