%nproc=1
%NoSave
%Mem=1900MB
#P OB98/GEN NMR

erre ene a

0 1
  C      349.106     141.362      41.222
  O      349.654     141.651      39.945
  P      351.172     142.148      39.795
  C      352.232     140.426      38.184
  O      352.024     140.812      39.536
  C      353.636     140.823      37.739
  O      354.606     140.184      38.593
  C      353.993     140.398      36.322
  O      353.378     141.248      35.366
  C      355.515     140.458      36.373
  O      355.969     141.817      36.233
  C      355.803     139.955      37.802
  N      356.199     138.553      37.842
  C      357.432     138.264      38.431
  O      358.133     139.163      38.894
  N      357.836     136.952      38.509
  C      357.085     136.012      38.027
  N      357.502     134.728      38.194
  C      355.797     136.276      37.351
  C      355.417     137.551      37.302
  O      351.669     142.994      40.918
  O      351.221     142.873      38.373
  H      355.470     142.347      36.886
  H      350.990     143.833      38.409
  H      355.216     135.455      36.954
  H      354.477     137.827      36.840
  H      356.595     140.556      38.263
  H      356.002     139.865      35.596
  H      353.674     139.363      36.136
  H      353.739     141.909      37.853
  H      358.291     134.587      38.818
  H      351.497     140.946      37.554
  H      356.857     133.948      38.114
  H      352.075     139.346      38.090
  P      352.210     140.628      34.459
  C      350.415     142.204      35.452
  O      350.849     140.873      35.272
  O      352.461     139.053      34.563
  O      352.205     141.112      33.044
  H      352.918     138.722      33.761
  H      349.376     142.186      35.801
  H      350.456     142.762      34.512
  H      351.028     142.697      36.210
  H      348.089     141.048      41.111
  H      349.144     142.239      41.833
  H      349.672     140.581      41.685

 3  4  5  6  7  8  9  10  11  12  13  23  27  28  29  30  32 0
 6-311+G(2d,p)
 ****
 34  35 0
 6-311+G(2d,p)
 ****
 1  2  14  15  16  17  18  19  20  21  22  24  25  26 0
 3-21G
 ****
 31  33  36  37  38  39  40  41  42  43  44  45  46 0
 3-21G
 ****


