%nproc=1
%NoSave
%Mem=1900MB
#P OB98/GEN NMR

erre ene a

0 1
  C      389.946     906.587      -0.563
  O      389.762     907.654       0.384
  P      391.046     908.224       1.154
  C      392.838     909.303      -0.367
  O      391.616     909.488       0.338
  C      393.781     910.498      -0.137
  O      395.073     910.197      -0.722
  C      393.322     911.807      -0.793
  O      392.478     912.674      -0.034
  C      394.659     912.539      -0.949
  O      395.006     913.194       0.290
  C      395.651     911.411      -1.222
  N      399.122     909.706      -4.587
  C      399.097     909.706      -3.226
  N      398.139     910.195      -2.417
  C      397.111     910.677      -3.130
  C      397.003     910.745      -4.515
  C      398.071     910.230      -5.252
  N      398.102     910.236      -6.630
  N      395.801     911.341      -4.861
  C      395.210     911.632      -3.727
  N      395.956     911.257      -2.644
  O      392.071     907.221       1.561
  O      390.386     908.930       2.435
  H      395.109     912.483       0.960
  H      390.971     908.786       3.214
  H      399.974     909.285      -2.742
  H      394.256     912.138      -3.634
  H      396.613     911.568      -0.708
  H      394.614     913.321      -1.718
  H      392.885     911.619      -1.780
  H      393.916     910.642       0.942
  H      392.638     909.192      -1.444
  H      398.922     909.900      -7.086
  H      397.345     910.674      -7.147
  H      393.274     908.354      -0.017
  P      391.145     913.309      -0.696
  C      389.668     911.214      -0.220
  O      389.912     912.567       0.021
  O      391.094     913.282      -2.186
  O      391.114     914.775      -0.061
  H      390.943     914.793       0.895
  H      388.928     910.846       0.525
  H      390.574     910.622      -0.127
  H      389.246     911.089      -1.219
  H      389.001     906.321      -0.989
  H      390.365     905.737      -0.066
  H      390.609     906.909      -1.339

 3  4  5  6  7  8  9  10  11  12  22  25  29  30  31  32 0
 6-311+G(2d,p)
 ****
 33  36  37 0
 6-311+G(2d,p)
 ****
 1  2  13  14  15  16  17  18  19  20  21  23  24  26 0
 3-21G
 ****
 27  28  34  35  38  39  40  41  42  43  44  45  46  47  48 0
 3-21G
 ****


