%nproc=1
%NoSave
%Mem=1900MB
#P OB98/GEN NMR

erre ene a

0 1
  C       62.765      65.900     562.403
  O       61.937      65.570     561.309
  P       62.427      65.787     559.801
  C       61.991      63.375     559.004
  O       62.976      64.365     559.284
  C       62.579      62.281     558.103
  O       62.819      62.847     556.779
  C       63.917      61.727     558.631
  O       63.963      60.305     558.751
  C       64.931      62.335     557.674
  O       66.164      61.644     557.628
  C       64.127      62.403     556.372
  N       64.735      63.290     555.383
  C       64.940      62.774     554.109
  O       64.635      61.636     553.763
  N       65.578      63.598     553.223
  C       66.123      64.812     553.512
  O       66.770      65.455     552.695
  C       65.911      65.291     554.887
  C       65.218      64.534     555.740
  O       63.372      66.920     559.590
  O       61.052      65.925     558.990
  H       66.512      61.585     558.537
  H       60.461      65.154     559.052
  H       65.733      63.236     552.296
  H       66.342      66.246     555.146
  H       65.045      64.860     556.760
  H       64.011      61.417     555.924
  H       65.149      63.352     558.020
  H       64.119      62.084     559.647
  H       61.832      61.488     558.013
  H       61.151      63.846     558.492
  H       61.612      62.953     559.942
  P       64.811      59.501     559.844
  C       62.916      59.199     561.598
  O       64.164      59.779     561.279
  O       66.289      59.694     559.769
  O       64.427      57.972     559.563
  H       65.172      57.398     559.817
  H       62.405      59.842     562.319
  H       63.082      58.220     562.057
  H       62.288      59.087     560.711
  H       62.253      65.680     563.317
  H       63.002      66.943     562.369
  H       63.667      65.327     562.353

 3  4  5  6  7  8  9  10  11  12  13  23  28  29  30  31  32 0
 6-311+G(2d,p)
 ****
 33  34 0
 6-311+G(2d,p)
 ****
 1  2  14  15  16  17  18  19  20  21  22  24  25  26  27 0
 3-21G
 ****
 35  36  37  38  39  40  41  42  43  44  45 0
 3-21G
 ****


