%nproc=1
%NoSave
%Mem=1900MB
#P OB98/GEN NMR

erre ene a

0 1
  C     -260.251     389.667    -230.963
  O     -259.488     388.686    -231.628
  H     -261.058     389.993    -231.624
  H     -259.624     390.531    -230.727
  H     -260.688     389.263    -230.047
  P     -258.340     387.945    -230.785
  C     -256.602     387.688    -232.697
  O     -257.517     387.039    -231.827
  C     -255.799     386.654    -233.493
  O     -255.515     385.521    -232.628
  C     -256.527     386.128    -234.731
  O     -255.572     385.951    -235.780
  C     -257.056     384.775    -234.294
  O     -257.260     383.882    -235.389
  C     -255.978     384.331    -233.293
  N     -256.499     383.349    -232.348
  C     -256.242     382.004    -232.639
  O     -255.617     381.696    -233.651
  N     -256.755     381.041    -231.806
  C     -257.523     381.381    -230.818
  N     -258.024     380.378    -230.049
  C     -257.874     382.785    -230.517
  C     -257.326     383.706    -231.311
  O     -259.148     386.868    -229.922
  O     -257.494     388.837    -229.939
  H     -256.429     383.838    -235.911
  H     -258.713     386.706    -229.064
  H     -258.540     383.017    -229.701
  H     -257.533     384.760    -231.171
  H     -255.122     383.893    -233.821
  H     -258.018     384.905    -233.782
  H     -257.325     386.793    -235.075
  H     -254.834     387.098    -233.763
  H     -257.771     379.428    -230.297
  H     -255.912     388.294    -232.103
  H     -258.666     380.525    -229.286
  H     -257.154     388.345    -233.380
  P     -255.972     386.521    -237.226
  C     -255.160     384.482    -238.613
  O     -254.992     385.860    -238.311
  O     -255.502     388.047    -237.162
  O     -257.429     386.403    -237.530
  H     -256.276     388.637    -237.115
  H     -254.440     384.188    -239.348
  H     -256.146     384.318    -238.994
  H     -255.020     383.903    -237.724

 6  7  8  9  10  11  12  13  14  15  16  26  30  31  32  33  35 0
 6-311+G(2d,p)
 ****
 37  38 0
 6-311+G(2d,p)
 ****
 1  2  3  4  5  17  18  19  20  21  22  23  24  25 0
 3-21G
 ****
 27  28  29  34  36  39  40  41  42  43  44  45  46 0
 3-21G
 ****


