%nproc=1
%NoSave
%Mem=1900MB
#P OB98/GEN NMR

erre ene a

0 1
  C     -202.156      16.699     271.929
  O     -203.472      16.863     272.415
  H     -201.969      17.447     271.155
  H     -202.030      15.704     271.494
  H     -201.437      16.844     272.740
  P     -203.987      15.793     273.491
  C     -202.489      16.765     275.379
  O     -202.824      15.636     274.583
  C     -202.625      16.405     276.857
  O     -203.977      15.966     277.129
  C     -201.731      15.259     277.303
  O     -200.390      15.665     277.526
  C     -202.426      14.831     278.583
  O     -202.016      15.628     279.702
  C     -203.911      15.061     278.250
  N     -204.608      13.804     277.983
  C     -204.574      12.865     279.011
  O     -204.005      13.058     280.084
  N     -205.187      11.672     278.749
  C     -205.771      11.315     277.569
  O     -206.255      10.206     277.383
  C     -205.761      12.340     276.512
  C     -205.184      13.518     276.762
  O     -203.943      14.412     272.685
  O     -205.342      16.069     274.055
  H     -204.849      14.133     272.460
  H     -202.741      15.570     280.355
  H     -205.176      10.980     279.482
  H     -206.215      12.088     275.563
  H     -205.153      14.286     275.996
  H     -204.419      15.558     279.087
  H     -202.197      13.796     278.823
  H     -201.778      14.436     276.579
  H     -202.430      17.304     277.454
  H     -203.167      17.592     275.152
  H     -201.466      17.075     275.145
  P     -199.275      14.519     277.667
  C     -198.453      14.578     275.167
  O     -199.122      13.878     276.206
  O     -200.085      13.424     278.508
  O     -198.016      15.000     278.301
  H     -201.045      13.488     278.356
  H     -198.458      13.985     274.277
  H     -197.443      14.772     275.461
  H     -198.954      15.505     274.981

 6  7  8  9  10  11  12  13  14  15  16  27  31  32  33  34  35 0
 6-311+G(2d,p)
 ****
 36  37 0
 6-311+G(2d,p)
 ****
 1  2  3  4  5  17  18  19  20  21  22  23  24  25 0
 3-21G
 ****
 26  28  29  30  38  39  40  41  42  43  44  45 0
 3-21G
 ****


