%nproc=1
%NoSave
%Mem=1900MB
#P OB98/GEN NMR

erre ene a

0 1
  C     -630.107     326.331       7.601
  O     -629.648     325.030       7.272
  H     -629.279     326.892       8.036
  H     -630.910     326.263       8.336
  H     -630.460     326.864       6.715
  P     -630.576     324.097       6.351
  C     -631.916     323.194       8.363
  O     -631.046     322.876       7.291
  C     -632.489     321.913       8.993
  O     -633.311     321.230       8.014
  C     -631.415     320.931       9.470
  O     -631.956     320.218      10.607
  C     -631.308     319.993       8.285
  O     -630.681     318.774       8.621
  C     -632.779     319.904       7.854
  N     -632.928     319.405       6.486
  C     -633.254     318.053       6.341
  O     -633.374     317.291       7.303
  N     -633.386     317.601       5.071
  C     -633.169     318.330       3.928
  O     -633.273     317.863       2.800
  C     -632.795     319.730       4.139
  C     -632.690     320.204       5.388
  O     -629.985     323.688       5.044
  O     -631.925     324.936       6.165
  H     -629.771     318.938       8.950
  H     -632.334     324.718       5.304
  H     -633.629     316.629       4.950
  H     -632.611     320.340       3.259
  H     -632.422     321.236       5.570
  H     -633.332     319.232       8.522
  H     -630.706     320.456       7.484
  H     -630.474     321.410       9.732
  H     -633.155     322.202       9.819
  H     -632.733     323.810       7.968
  H     -631.365     323.768       9.110
  P     -631.915     320.839      12.083
  C     -629.538     319.960      12.535
  O     -630.897     319.977      12.976
  O     -633.275     321.023      12.702
  O     -631.178     322.249      11.924
  H     -631.482     322.869      12.614
  H     -628.954     319.359      13.201
  H     -629.153     320.958      12.526
  H     -629.488     319.550      11.548

 6  7  8  9  10  11  12  13  14  15  16  26  31  32  33  34  35 0
 6-311+G(2d,p)
 ****
 36  37 0
 6-311+G(2d,p)
 ****
 1  2  3  4  5  17  18  19  20  21  22  23  24  25 0
 3-21G
 ****
 27  28  29  30  38  39  40  41  42  43  44  45 0
 3-21G
 ****


