%nproc=1
%NoSave
%Mem=1900MB
#P OB98/GEN NMR

erre ene a

0 1
  C     -105.799     468.012    -223.909
  O     -105.624     469.332    -223.411
  P     -106.316     469.710    -222.013
  C     -108.326     471.003    -223.021
  O     -107.892     469.861    -222.288
  C     -109.840     471.181    -222.905
  O     -110.258     472.257    -223.796
  C     -110.659     469.945    -223.272
  O     -111.837     469.948    -222.448
  C     -111.068     470.214    -224.710
  O     -112.204     469.448    -225.102
  C     -111.295     471.724    -224.651
  N     -113.741     474.682    -228.032
  C     -114.076     474.270    -226.789
  N     -113.369     473.485    -225.948
  C     -112.209     473.109    -226.515
  C     -111.748     473.422    -227.782
  C     -112.573     474.251    -228.566
  N     -112.231     474.677    -229.825
  N     -110.525     472.831    -228.014
  C     -110.246     472.175    -226.903
  N     -111.223     472.335    -225.962
  O     -105.833     471.216    -221.777
  O     -105.949     468.836    -220.862
  H     -112.351     469.581    -226.056
  H     -105.211     471.254    -221.022
  H     -115.034     474.628    -226.412
  H     -109.357     471.576    -226.738
  H     -112.258     471.981    -224.208
  H     -110.237     469.960    -225.382
  H     -110.124     469.000    -223.155
  H     -110.072     471.508    -221.886
  H     -108.073     470.856    -224.078
  H     -112.811     475.382    -230.267
  H     -111.283     474.524    -230.156
  H     -107.805     471.897    -222.655
  P     -112.199     468.587    -221.687
  C     -113.269     467.431    -223.742
  O     -112.221     467.429    -222.791
  O     -113.743     468.776    -221.301
  O     -111.361     468.324    -220.476
  H     -113.950     468.262    -220.502
  H     -112.882     467.039    -224.690
  H     -113.672     468.434    -223.914
  H     -114.073     466.777    -223.394
  H     -105.284     467.911    -224.841
  H     -106.842     467.821    -224.055
  H     -105.403     467.310    -223.205

 3  4  5  6  7  8  9  10  11  12  22  25  29  30  31  32 0
 6-311+G(2d,p)
 ****
 33  36  37 0
 6-311+G(2d,p)
 ****
 1  2  13  14  15  16  17  18  19  20  21  23  24  26 0
 3-21G
 ****
 27  28  34  35  38  39  40  41  42  43  44  45  46  47  48 0
 3-21G
 ****


