%nproc=1
%NoSave
%Mem=1900MB
#P OB98/GEN NMR

erre ene a

0 1
  C     -358.542      27.217    -676.027
  O     -357.889      26.599    -677.140
  P     -358.614      26.693    -678.578
  C     -358.800      24.191    -679.321
  O     -358.133      25.438    -679.470
  C     -358.074      23.097    -680.096
  O     -357.739      23.519    -681.451
  C     -356.737      22.675    -679.476
  O     -356.943      21.747    -678.420
  C     -356.067      22.009    -680.657
  O     -356.574      20.670    -680.814
  C     -356.503      22.881    -681.840
  N     -353.057      24.369    -685.332
  C     -353.860      23.267    -685.240
  N     -354.725      22.941    -684.269
  C     -354.772      23.891    -683.330
  C     -354.016      25.060    -683.287
  C     -353.137      25.284    -684.341
  N     -352.353      26.426    -684.425
  N     -354.324      25.778    -682.152
  C     -355.250      25.064    -681.520
  N     -355.536      23.909    -682.193
  O     -357.881      27.945    -679.267
  O     -360.090      26.893    -678.510
  H     -356.147      20.281    -681.600
  H     -358.509      28.419    -679.825
  H     -353.763      22.543    -686.079
  H     -355.727      25.341    -680.596
  H     -356.705      22.287    -682.732
  H     -354.988      21.919    -680.539
  H     -356.172      23.555    -679.151
  H     -358.753      22.222    -680.171
  H     -359.836      24.282    -679.671
  H     -351.748      26.510    -685.251
  H     -352.409      27.115    -683.703
  H     -358.858      23.945    -678.257
  P     -356.280      22.099    -677.003
  C     -355.266      19.761    -676.459
  O     -356.258      20.730    -676.173
  O     -357.422      22.975    -676.273
  O     -354.982      22.836    -677.069
  H     -357.009      23.621    -675.666
  H     -355.211      19.052    -675.621
  H     -354.283      20.241    -676.590
  H     -355.525      19.225    -677.371
  H     -357.953      27.077    -675.145
  H     -359.505      26.772    -675.887
  H     -358.657      28.264    -676.217

 3  4  5  6  7  8  9  10  11  12  22  25  29  30  31  32 0
 6-311+G(2d,p)
 ****
 33  36  37 0
 6-311+G(2d,p)
 ****
 1  2  13  14  15  16  17  18  19  20  21  23  24  26 0
 3-21G
 ****
 27  28  34  35  38  39  40  41  42  43  44  45  46  47  48 0
 3-21G
 ****


