%nproc=1
%NoSave
%Mem=1900MB
#P OB98/GEN NMR

erre ene a

0 1
  C      140.185     172.566    -403.913
  O      138.770     172.749    -403.835
  P      137.918     172.852    -405.191
  C      136.982     175.230    -404.883
  O      137.860     174.400    -405.640
  C      136.492     176.449    -405.700
  O      135.594     176.032    -406.771
  C      135.745     177.497    -404.868
  O      136.068     178.784    -405.418
  C      134.280     177.161    -405.138
  O      133.407     178.228    -404.821
  C      134.367     176.775    -406.621
  N      133.207     176.013    -407.063
  C      132.440     176.554    -408.094
  O      132.699     177.690    -408.520
  N      131.401     175.822    -408.586
  C      131.060     174.704    -408.015
  N      130.024     173.999    -408.543
  C      131.729     174.194    -406.802
  C      132.803     174.870    -406.404
  O      136.602     172.148    -405.189
  O      138.913     172.217    -406.291
  H      133.494     178.439    -403.868
  H      138.380     171.744    -406.959
  H      131.370     173.305    -406.303
  H      133.379     174.570    -405.537
  H      134.459     177.669    -407.251
  H      133.989     176.292    -404.534
  H      136.010     177.489    -403.802
  H      137.362     176.910    -406.170
  H      129.554     174.375    -409.358
  H      137.504     175.586    -403.993
  H      129.735     173.098    -408.187
  H      136.137     174.636    -404.522
  P      137.357     179.568    -404.853
  C      136.309     181.335    -403.258
  O      137.001     180.107    -403.380
  O      137.330     180.910    -405.728
  O      138.672     178.869    -405.008
  H      138.245     181.273    -405.768
  H      135.904     181.416    -402.245
  H      135.480     181.402    -403.971
  H      136.993     182.177    -403.436
  H      140.593     172.518    -402.925
  H      140.622     173.388    -404.441
  H      140.399     171.655    -404.432

 3  4  5  6  7  8  9  10  11  12  13  23  27  28  29  30  32 0
 6-311+G(2d,p)
 ****
 34  35 0
 6-311+G(2d,p)
 ****
 1  2  14  15  16  17  18  19  20  21  22  24  25  26 0
 3-21G
 ****
 31  33  36  37  38  39  40  41  42  43  44  45  46 0
 3-21G
 ****


