%nproc=1
%NoSave
%Mem=1900MB
#P OB98/GEN NMR

erre ene a

0 1
  C      788.900     205.821     497.878
  O      789.457     205.489     496.597
  P      789.548     203.938     496.205
  C      790.857     203.218     498.331
  O      790.884     203.385     496.917
  C      791.889     202.169     498.762
  O      791.609     200.917     498.111
  C      793.339     202.520     498.365
  O      793.936     203.431     499.274
  C      794.004     201.135     498.454
  O      794.335     200.861     499.820
  C      792.870     200.198     497.977
  N      795.527     197.402     494.697
  C      795.698     197.548     496.050
  N      796.695     196.853     496.638
  N      794.939     198.339     496.781
  C      793.968     198.957     496.079
  C      793.725     198.901     494.732
  C      794.590     198.053     493.920
  O      794.534     197.947     492.711
  N      792.622     199.644     494.395
  C      792.185     200.160     495.541
  N      793.007     199.786     496.594
  O      789.933     203.993     494.658
  O      788.310     203.136     496.445
  H      794.970     201.561     500.095
  H      789.642     203.151     494.209
  H      796.127     196.765     494.181
  H      791.315     200.773     495.651
  H      792.811     199.305     498.604
  H      794.913     201.076     497.872
  H      797.210     196.140     496.147
  H      793.392     202.866     497.318
  H      796.791     196.922     497.642
  H      791.815     202.034     499.841
  H      789.861     202.866     498.637
  H      791.057     204.160     498.814
  P      794.400     204.846     498.632
  C      796.610     203.619     498.029
  O      795.995     204.760     498.605
  O      794.079     205.887     499.819
  O      793.724     205.204     497.352
  H      793.944     206.764     499.452
  H      796.052     203.260     497.155
  H      796.693     202.827     498.772
  H      797.613     203.894     497.694
  H      788.902     206.884     498.003
  H      789.487     205.370     498.650
  H      787.895     205.457     497.935

 3  4  5  6  7  8  9  10  11  12  23  26  30  31  33  0
 6-311+G(2d,p)
 ****
 35  36  37  38 0
 6-311+G(2d,p)
 ****
 1  2  13  14  15  16  17  18  19  20  21  22  24  25  27  28  29 0
 3-21G
 ****
 32  34  39  40  41  42  43  44  45  46  47  48  49 0
 3-21G
 ****


