%nproc=1
%NoSave
%Mem=1900MB
#P OB98/GEN NMR

erre ene a

0 1
  C      425.427    -350.727     115.164
  O      425.686    -349.398     114.754
  H      426.306    -351.105     115.693
  H      425.233    -351.370     114.303
  H      424.573    -350.748     115.846
  P      424.665    -348.715     113.720
  C      423.404    -347.279     115.451
  O      423.339    -348.401     114.574
  C      422.173    -346.387     115.298
  O      421.952    -346.052     113.911
  C      420.875    -347.032     115.754
  O      420.791    -347.278     117.139
  C      419.834    -346.145     115.090
  O      419.573    -344.958     115.838
  C      420.541    -345.788     113.759
  N      419.976    -346.508     112.622
  C      418.781    -346.010     112.118
  O      418.196    -345.037     112.591
  N      418.253    -346.692     111.056
  C      418.768    -347.824     110.497
  O      418.233    -348.403     109.557
  C      420.012    -348.327     111.100
  C      420.554    -347.655     112.117
  O      424.407    -349.487     112.459
  O      425.287    -347.263     113.470
  H      420.430    -344.502     115.953
  H      424.890    -346.838     112.671
  H      417.393    -346.338     110.665
  H      420.442    -349.230     110.688
  H      421.475    -348.006     112.577
  H      420.447    -344.712     113.557
  H      418.879    -346.658     114.956
  H      420.794    -348.017     115.272
  H      422.363    -345.452     115.837
  H      424.300    -346.706     115.193
  H      423.492    -347.629     116.485
  P      420.395    -348.687     117.767
  C      422.532    -348.862     119.262
  O      421.736    -349.433     118.232
  O      419.366    -349.483     117.033
  O      419.752    -348.243     119.180
  H      419.036    -348.878     119.382
  H      423.382    -349.486     119.444
  H      421.952    -348.780     120.157
  H      422.862    -347.890     118.960

 6  7  8  9  10  11  12  13  14  15  16  26  31  32  33  34  35 0
 6-311+G(2d,p)
 ****
 36  37 0
 6-311+G(2d,p)
 ****
 1  2  3  4  5  17  18  19  20  21  22  23  24  25 0
 3-21G
 ****
 27  28  29  30  38  39  40  41  42  43  44  45 0
 3-21G
 ****


