%nproc=1
%NoSave
%Mem=1900MB
#P OB98/GEN NMR

erre ene a

0 1
  C      -74.841     669.627     308.615
  O      -75.649     668.448     308.616
  P      -75.060     667.108     309.278
  C      -73.531     665.932     307.563
  O      -73.604     666.831     308.665
  C      -72.105     665.370     307.411
  O      -71.697     664.658     308.626
  C      -71.990     664.376     306.253
  O      -70.678     664.449     305.653
  C      -72.096     663.031     306.945
  O      -71.550     661.975     306.144
  C      -71.338     663.321     308.243
  N      -69.559     659.549     311.219
  C      -68.953     660.331     310.302
  N      -69.483     661.335     309.572
  C      -70.785     661.493     309.865
  C      -71.541     660.768     310.780
  C      -70.871     659.749     311.471
  N      -71.505     658.926     312.379
  N      -72.841     661.230     310.802
  C      -72.889     662.160     309.889
  N      -71.668     662.389     309.306
  O      -75.973     665.927     309.275
  O      -74.720     667.566     310.776
  H      -70.669     662.277     305.833
  H      -74.992     666.852     311.397
  H      -67.896     660.127     310.144
  H      -73.783     662.706     309.586
  H      -70.256     663.295     308.098
  H      -73.162     662.802     307.134
  H      -72.746     664.499     305.460
  H      -71.406     666.203     307.285
  H      -73.828     666.446     306.647
  H      -70.978     658.144     312.748
  H      -72.511     658.979     312.478
  H      -74.258     665.132     307.713
  P      -70.611     665.211     304.235
  C      -71.611     663.400     302.626
  O      -71.793     664.608     303.344
  O      -69.250     665.191     303.615
  O      -71.104     666.687     304.620
  H      -71.941     666.704     305.128
  H      -72.572     663.097     302.203
  H      -71.256     662.609     303.290
  H      -70.892     663.555     301.824
  H      -75.374     670.424     308.141
  H      -73.934     669.437     308.080
  H      -74.610     669.902     309.623

 3  4  5  6  7  8  9  10  11  12  22  25  29  30  31  32 0
 6-311+G(2d,p)
 ****
 33  36  37 0
 6-311+G(2d,p)
 ****
 1  2  13  14  15  16  17  18  19  20  21  23  24  26 0
 3-21G
 ****
 27  28  34  35  38  39  40  41  42  43  44  45  46  47  48 0
 3-21G
 ****


