%nproc=1
%NoSave
%Mem=1900MB
#P OB98/GEN NMR

erre ene a

0 1
  C     -899.154    -895.840    -893.700
  O     -898.374    -894.620    -893.940
  P     -897.064    -894.390    -893.070
  C     -895.334    -893.150    -894.460
  O     -895.744    -894.410    -893.960
  C     -893.964    -893.290    -895.300
  O     -892.924    -893.730    -894.410
  C     -894.084    -894.300    -896.420
  O     -893.274    -893.850    -897.520
  C     -893.464    -895.600    -895.830
  O     -893.064    -896.520    -896.820
  C     -892.324    -894.870    -894.990
  N     -889.264    -898.890    -894.060
  C     -889.604    -898.250    -895.200
  N     -890.424    -897.170    -895.370
  C     -890.984    -896.840    -894.160
  C     -890.764    -897.410    -892.930
  C     -889.884    -898.510    -892.870
  N     -889.584    -899.210    -891.760
  N     -891.544    -896.810    -891.950
  C     -892.154    -895.830    -892.620
  N     -891.824    -895.770    -893.930
  O     -896.924    -895.810    -892.190
  O     -897.184    -893.250    -892.100
  H     -892.554    -897.250    -896.410
  H     -897.254    -895.670    -891.280
  H     -889.064    -898.570    -896.110
  H     -892.934    -895.180    -892.120
  H     -891.464    -894.660    -895.610
  H     -894.174    -896.110    -895.160
  H     -895.114    -894.510    -896.810
  H     -893.774    -892.270    -895.720
  H     -895.184    -892.470    -893.610
  H     -888.964    -900.000    -891.780
  H     -890.004    -898.970    -890.870
  H     -896.114    -892.710    -895.070
  P     -893.974    -892.950    -898.650
  C     -893.014    -890.550    -898.080
  O     -894.124    -891.440    -897.990
  O     -895.504    -893.480    -898.620
  O     -893.364    -893.030    -900.000
  H     -895.884    -893.360    -899.560
  H     -893.404    -889.570    -898.280
  H     -892.334    -890.850    -898.840
  H     -892.484    -890.500    -897.080
  H     -900.000    -895.857    -894.354
  H     -899.488    -895.855    -892.684
  H     -898.541    -896.697    -893.887

 3  4  5  6  7  8  9  10  11  12  22  25  29  30  31  32 0
 6-311+G(2d,p)
 ****
 33  36  37 0
 6-311+G(2d,p)
 ****
 1  2  13  14  15  16  17  18  19  20  21  23  24  26 0
 3-21G
 ****
 27  28  34  35  38  39  40  41  42  43  44  45  46  47  48 0
 3-21G
 ****


