%nproc=1
%NoSave
%Mem=1900MB
#P OB98/GEN NMR

erre ene a

0 1
  C      177.150     -63.329     -23.285
  O      176.076     -63.004     -24.144
  H      177.885     -62.521     -23.327
  H      177.632     -64.257     -23.603
  H      176.796     -63.424     -22.255
  P      174.912     -64.089     -24.351
  C      175.949     -65.061     -26.517
  O      174.877     -64.332     -25.941
  C      175.480     -65.778     -27.781
  O      176.562     -66.508     -28.395
  C      174.387     -66.819     -27.560
  O      173.111     -66.254     -27.310
  C      174.448     -67.552     -28.890
  O      173.812     -66.759     -29.907
  C      175.978     -67.625     -29.122
  N      176.563     -68.888     -28.675
  C      176.868     -69.825     -29.670
  O      176.645     -69.575     -30.854
  N      177.385     -71.042     -29.298
  C      177.564     -71.308     -28.042
  N      178.035     -72.546     -27.724
  C      177.273     -70.345     -26.963
  C      176.776     -69.170     -27.343
  O      173.593     -63.772     -23.724
  O      175.550     -65.461     -23.831
  H      173.868     -67.263     -30.739
  H      174.863     -66.165     -23.928
  H      177.433     -70.620     -25.931
  H      176.521     -68.417     -26.607
  H      176.217     -67.480     -30.182
  H      173.946     -68.523     -28.872
  H      174.668     -67.516     -26.764
  H      175.164     -65.009     -28.499
  H      178.182     -73.194     -28.486
  H      176.313     -65.776     -25.774
  H      177.937     -72.922     -26.787
  H      176.764     -64.384     -26.788
  P      172.119     -67.044     -26.324
  C      171.306     -68.744     -28.122
  O      170.970     -67.684     -27.243
  O      171.372     -65.862     -25.550
  O      172.771     -68.018     -25.394
  H      171.817     -65.657     -24.705
  H      170.433     -69.054     -28.658
  H      171.689     -69.568     -27.557
  H      172.050     -68.411     -28.815

 6  7  8  9  10  11  12  13  14  15  16  26  30  31  32  33  35 0
 6-311+G(2d,p)
 ****
 37  38 0
 6-311+G(2d,p)
 ****
 1  2  3  4  5  17  18  19  20  21  22  23  24  25 0
 3-21G
 ****
 27  28  29  34  36  39  40  41  42  43  44  45  46 0
 3-21G
 ****


