%nproc=1
%NoSave
%Mem=1900MB
#P OB98/GEN NMR

erre ene a

0 1
  C      524.599    -283.539     345.008
  O      524.328    -284.664     345.829
  P      523.452    -284.542     347.163
  C      522.529    -286.939     347.000
  O      523.342    -286.038     347.745
  C      522.302    -288.250     347.763
  O      523.549    -289.005     347.807
  C      521.816    -288.065     349.214
  O      520.946    -289.174     349.491
  C      523.101    -288.189     350.014
  O      522.874    -288.488     351.386
  C      523.840    -289.272     349.203
  N      525.271    -289.278     349.481
  C      525.683    -289.886     350.677
  O      524.844    -290.318     351.473
  N      527.034    -289.945     350.962
  C      527.873    -289.359     350.171
  N      529.194    -289.445     350.504
  C      527.474    -288.593     348.978
  C      526.168    -288.602     348.688
  O      522.157    -283.823     347.016
  O      524.457    -283.850     348.210
  H      522.403    -289.350     351.437
  H      524.526    -282.869     348.025
  H      528.210    -288.071     348.380
  H      525.782    -288.078     347.823
  H      523.436    -290.271     349.440
  H      523.652    -287.233     349.964
  H      521.292    -287.118     349.385
  H      521.579    -288.847     347.200
  H      529.428    -290.000     351.332
  H      523.058    -287.165     346.060
  H      529.937    -289.101     349.928
  H      521.575    -286.468     346.747
  P      519.450    -288.951     350.016
  C      518.534    -290.495     348.187
  O      518.606    -290.241     349.576
  O      518.837    -287.640     349.643
  O      519.569    -289.111     351.611
  H      518.760    -288.742     352.031
  H      518.185    -291.518     348.026
  H      519.513    -290.376     347.715
  H      517.820    -289.802     347.727
  H      525.197    -283.842     344.174
  H      525.126    -282.802     345.576
  H      523.678    -283.125     344.655

 3  4  5  6  7  8  9  10  11  12  13  23  27  28  29  30  32 0
 6-311+G(2d,p)
 ****
 34  35 0
 6-311+G(2d,p)
 ****
 1  2  14  15  16  17  18  19  20  21  22  24  25  26 0
 3-21G
 ****
 31  33  36  37  38  39  40  41  42  43  44  45  46 0
 3-21G
 ****


