%nproc=1
%NoSave
%Mem=1900MB
#P OB98/GEN NMR

erre ene a

0 1
  C       44.171      28.203     -31.856
  O       43.349      28.352     -32.997
  H       43.551      28.091     -30.964
  H       44.779      27.302     -31.978
  H       44.835      29.064     -31.745
  P       42.500      29.709     -33.102
  C       42.542      29.739     -35.701
  O       41.753      29.648     -34.524
  C       41.675      29.524     -36.942
  O       41.682      28.111     -37.279
  C       40.215      29.948     -36.749
  O       39.745      30.551     -37.957
  C       39.493      28.633     -36.512
  O       38.115      28.705     -36.860
  C       40.310      27.678     -37.377
  N       37.250      23.592     -37.373
  C       37.154      24.791     -37.986
  N       38.019      25.827     -37.939
  C       39.098      25.508     -37.201
  C       39.335      24.330     -36.515
  C       38.343      23.340     -36.613
  N       38.415      22.129     -35.962
  N       40.540      24.396     -35.840
  C       41.017      25.594     -36.116
  N       40.180      26.303     -36.930
  O       43.644      30.811     -33.326
  O       41.637      30.028     -31.929
  H       37.753      27.795     -36.871
  H       44.056      31.029     -32.468
  H       36.262      24.942     -38.588
  H       41.951      25.996     -35.747
  H       40.012      27.708     -38.432
  H       39.564      28.359     -35.453
  H       40.083      30.646     -35.919
  H       42.134      30.052     -37.786
  H       43.325      28.973     -35.665
  H       37.632      21.500     -36.043
  H       39.192      21.948     -35.343
  H       43.011      30.728     -35.745
  P       39.426      32.123     -37.903
  C       41.405      32.773     -39.446
  O       40.001      32.808     -39.237
  O       40.398      32.660     -36.750
  O       37.996      32.432     -37.598
  H       39.896      33.205     -36.117
  H       41.641      33.264     -40.367
  H       41.734      31.756     -39.489
  H       41.898      33.273     -38.639

 6  7  8  9  10  11  12  13  14  15  25  28  32  33  34  35 0
 6-311+G(2d,p)
 ****
 36  39  40 0
 6-311+G(2d,p)
 ****
 1  2  3  4  5  16  17  18  19  20  21  22  23  24 0
 3-21G
 ****
 26  27  29  30  31  37  38  41  42  43  44  45  46  47 0
 3-21G
 ****
 48 0
 3-21G
 ****


