%nproc=1
%NoSave
%Mem=1900MB
#P OB98/GEN NMR

erre ene a

0 1
  C     -285.882      56.144       9.096
  O     -287.121      55.765       8.517
  P     -287.173      54.863       7.189
  C     -289.678      54.233       7.275
  O     -288.675      55.018       6.646
  C     -290.995      54.366       6.515
  O     -291.497      55.708       6.653
  C     -290.885      54.116       5.014
  O     -290.785      52.731       4.733
  C     -292.153      54.801       4.515
  O     -293.292      53.950       4.719
  C     -292.242      56.027       5.453
  N     -291.746      57.251       4.834
  C     -292.483      57.746       3.754
  O     -293.502      57.178       3.368
  N     -292.069      58.911       3.156
  C     -290.998      59.515       3.579
  N     -290.674      60.698       2.994
  C     -290.161      58.992       4.676
  C     -290.591      57.873       5.253
  O     -286.717      53.456       7.370
  O     -286.329      55.683       6.112
  H     -293.173      53.176       4.140
  H     -285.363      55.473       6.122
  H     -289.273      59.523       4.986
  H     -290.045      57.439       6.079
  H     -293.277      56.185       5.770
  H     -292.116      55.067       3.454
  H     -290.007      54.631       4.606
  H     -291.722      53.678       6.964
  H     -291.367      61.103       2.371
  H     -289.817      54.598       8.297
  H     -290.048      61.356       3.439
  H     -289.351      53.187       7.314
  P     -290.563      52.297       3.205
  C     -289.411      50.081       3.904
  O     -290.485      50.693       3.211
  O     -289.065      52.771       2.904
  O     -291.546      52.888       2.249
  H     -289.068      53.609       2.402
  H     -289.633      49.016       4.013
  H     -289.293      50.520       4.897
  H     -288.487      50.193       3.331
  H     -286.062      56.738       9.967
  H     -285.316      56.712       8.388
  H     -285.333      55.267       9.370

 3  4  5  6  7  8  9  10  11  12  13  23  27  28  29  30  32 0
 6-311+G(2d,p)
 ****
 34  35 0
 6-311+G(2d,p)
 ****
 1  2  14  15  16  17  18  19  20  21  22  24  25  26 0
 3-21G
 ****
 31  33  36  37  38  39  40  41  42  43  44  45  46 0
 3-21G
 ****


