%nproc=1
%NoSave
%Mem=1900MB
#P OB98/GEN NMR

erre ene a

0 1
  C      -11.439    -485.242     688.594
  O      -10.222    -484.537     688.620
  P      -10.187    -482.968     688.274
  C       -8.480    -483.461     686.414
  O       -9.727    -482.852     686.738
  C       -8.388    -483.690     684.898
  O       -9.236    -484.798     684.494
  C       -8.872    -482.511     684.071
  O       -8.105    -481.323     684.128
  C       -9.025    -483.165     682.701
  O       -7.771    -483.270     682.025
  C       -9.542    -484.573     683.091
  N      -10.982    -484.718     682.822
  C      -11.304    -485.282     681.593
  O      -10.483    -485.640     680.761
  N      -12.644    -485.382     681.326
  C      -13.667    -484.954     682.138
  O      -14.843    -485.041     681.823
  C      -13.251    -484.357     683.430
  C      -11.938    -484.266     683.699
  O       -9.400    -482.126     689.225
  O      -11.742    -482.577     688.191
  H       -7.537    -482.377     681.696
  H      -12.247    -483.064     687.513
  H      -12.916    -485.769     680.441
  H      -14.028    -484.023     684.089
  H      -11.611    -483.825     684.642
  H       -9.002    -485.348     682.520
  H       -9.698    -482.593     682.054
  H       -9.876    -482.243     684.407
  H       -7.354    -483.969     684.656
  H       -8.407    -484.430     686.927
  H       -7.650    -482.832     686.763
  P       -8.564    -479.961     683.411
  C       -6.593    -480.336     681.745
  O       -7.951    -479.949     681.922
  O       -8.441    -478.703     684.216
  O      -10.121    -480.244     683.115
  H      -10.609    -479.395     683.160
  H       -6.343    -480.231     680.700
  H       -6.472    -481.393     682.032
  H       -5.935    -479.700     682.336
  H      -11.263    -486.266     688.850
  H      -11.862    -485.187     687.613
  H      -12.117    -484.809     689.300

 3  4  5  6  7  8  9  10  11  12  13  23  28  29  30  31  32 0
 6-311+G(2d,p)
 ****
 33  34 0
 6-311+G(2d,p)
 ****
 1  2  14  15  16  17  18  19  20  21  22  24  25  26  27 0
 3-21G
 ****
 35  36  37  38  39  40  41  42  43  44  45 0
 3-21G
 ****


