%nproc=1
%NoSave
%Mem=1900MB
#P OB98/GEN NMR

erre ene a

0 1
  C       59.233    -332.849    -426.642
  O       58.511    -332.697    -427.844
  H       59.295    -331.875    -426.143
  H       60.250    -333.199    -426.853
  H       58.726    -333.552    -425.978
  P       58.325    -334.018    -428.739
  C       55.735    -334.132    -428.804
  O       56.941    -334.682    -428.281
  C       54.632    -334.161    -427.745
  O       54.934    -333.247    -426.664
  C       53.253    -333.784    -428.266
  O       52.613    -334.886    -428.880
  C       52.554    -333.347    -426.982
  O       52.081    -334.480    -426.232
  C       53.692    -332.628    -426.234
  N       51.118    -328.313    -425.769
  C       50.783    -329.594    -425.363
  N       49.567    -329.757    -424.809
  N       51.577    -330.623    -425.512
  C       52.747    -330.317    -426.117
  C       53.191    -329.087    -426.542
  C       52.317    -327.949    -426.349
  O       52.578    -326.777    -426.622
  N       54.448    -329.168    -427.099
  C       54.745    -330.458    -427.042
  N       53.738    -331.193    -426.471
  O       59.427    -335.027    -428.150
  O       58.496    -333.826    -430.208
  H       51.341    -334.894    -426.699
  H       59.735    -335.612    -428.865
  H       50.468    -327.554    -425.607
  H       55.666    -330.899    -427.390
  H       53.617    -332.768    -425.146
  H       51.687    -332.719    -427.190
  H       48.816    -329.096    -424.973
  H       53.317    -332.927    -428.959
  H       49.312    -330.697    -424.528
  H       54.616    -335.176    -427.321
  H       55.420    -334.718    -429.672
  H       55.925    -333.098    -429.123
  P       52.101    -334.696    -430.402
  C       53.247    -336.905    -431.153
  O       53.130    -335.499    -431.327
  O       52.435    -333.162    -430.716
  O       50.656    -335.019    -430.607
  H       51.925    -332.861    -431.496
  H       53.970    -337.291    -431.841
  H       52.299    -337.367    -431.335
  H       53.560    -337.116    -430.152

 6  7  8  9  10  11  12  13  14  15  26  29  33  34 0
 6-311+G(2d,p)
 ****
 36  38  39  40  41 0
 6-311+G(2d,p)
 ****
 1  2  3  4  5  16  17  18  19  20  21  22  23  24  25 0
 3-21G
 ****
 27  28  30  31  32  35  37  42  43  44  45  46  47 0
 3-21G
 ****
 48  49 0
 3-21G
 ****


