%nproc=1
%NoSave
%Mem=1900MB
#P OB98/GEN NMR

erre ene a

0 1
  C       42.698     481.479    -871.310
  O       43.485     480.337    -870.941
  P       43.037     478.875    -871.400
  C       41.420     478.397    -869.433
  O       41.556     478.586    -870.840
  C       39.977     478.702    -869.011
  O       39.027     478.334    -870.048
  C       39.537     477.903    -867.789
  O       40.147     478.236    -866.552
  C       38.021     477.990    -867.864
  O       37.525     479.204    -867.303
  C       37.785     477.959    -869.391
  N       37.314     476.668    -869.873
  C       35.942     476.547    -870.050
  O       35.134     477.438    -869.783
  N       35.492     475.330    -870.510
  C       36.279     474.239    -870.772
  O       35.828     473.167    -871.163
  C       37.728     474.424    -870.551
  C       38.170     475.605    -870.121
  O       44.021     477.787    -871.177
  O       42.767     479.075    -872.980
  H       36.557     479.227    -867.465
  H       43.107     478.287    -873.439
  H       34.498     475.224    -870.654
  H       38.373     473.570    -870.738
  H       39.228     475.754    -869.946
  H       37.044     478.726    -869.680
  H       37.540     477.167    -867.319
  H       39.797     476.839    -867.966
  H       39.872     479.774    -868.832
  H       42.114     479.049    -868.909
  H       41.694     477.368    -869.181
  P       41.350     477.409    -865.918
  C       39.839     475.441    -865.129
  O       40.958     475.853    -865.890
  O       41.998     477.965    -864.684
  O       42.439     477.451    -867.107
  H       43.324     477.463    -866.715
  H       39.729     474.372    -865.216
  H       38.930     475.929    -865.486
  H       39.994     475.702    -864.066
  H       43.150     482.366    -870.916
  H       41.710     481.375    -870.912
  H       42.647     481.548    -872.377

 3  4  5  6  7  8  9  10  11  12  13  23  28  29  30  31  32 0
 6-311+G(2d,p)
 ****
 33  34 0
 6-311+G(2d,p)
 ****
 1  2  14  15  16  17  18  19  20  21  22  24  25  26  27 0
 3-21G
 ****
 35  36  37  38  39  40  41  42  43  44  45 0
 3-21G
 ****


