%nproc=1
%NoSave
%Mem=1900MB
#P OB98/GEN NMR

erre ene a

0 1
  C     -350.024     338.545    -174.329
  O     -348.611     338.376    -174.259
  P     -348.029     336.896    -174.041
  C     -347.980     334.814    -175.681
  O     -347.786     336.197    -175.459
  C     -346.791     334.268    -176.493
  O     -346.799     334.805    -177.827
  C     -345.435     334.612    -175.880
  O     -345.039     333.668    -174.901
  C     -344.537     334.630    -177.103
  O     -344.202     333.283    -177.502
  C     -345.466     335.287    -178.149
  N     -345.501     336.771    -178.209
  C     -345.492     337.412    -179.449
  O     -345.443     336.835    -180.531
  N     -345.550     338.787    -179.410
  C     -345.783     339.553    -178.306
  O     -345.886     340.775    -178.343
  C     -345.936     338.814    -177.048
  C     -345.783     337.487    -177.052
  O     -349.257     336.088    -173.422
  O     -346.816     336.835    -173.164
  H     -344.985     332.731    -177.338
  H     -349.052     335.800    -172.514
  H     -345.465     339.269    -180.291
  H     -346.171     339.383    -176.154
  H     -345.891     336.934    -176.122
  H     -345.215     334.938    -179.158
  H     -343.593     335.127    -176.888
  H     -345.455     335.621    -175.459
  H     -346.896     333.171    -176.562
  H     -348.912     334.637    -176.220
  H     -348.058     334.292    -174.723
  P     -345.247     333.996    -173.344
  C     -347.214     333.766    -171.707
  O     -346.698     333.391    -172.967
  O     -345.011     335.410    -172.930
  O     -344.251     332.973    -172.608
  H     -343.396     333.415    -172.400
  H     -348.257     333.429    -171.645
  H     -347.192     334.854    -171.598
  H     -346.645     333.291    -170.912
  H     -350.253     339.580    -174.475
  H     -350.469     338.207    -173.417
  H     -350.411     337.975    -175.147

 3  4  5  6  7  8  9  10  11  12  13  23  28  29  30  31  32 0
 6-311+G(2d,p)
 ****
 33  34 0
 6-311+G(2d,p)
 ****
 1  2  14  15  16  17  18  19  20  21  22  24  25  26  27 0
 3-21G
 ****
 35  36  37  38  39  40  41  42  43  44  45 0
 3-21G
 ****


