%nproc=1
%NoSave
%Mem=1900MB
#P OB98/GEN NMR

erre ene a

0 1
  C       62.638    -138.191    -186.925
  O       61.657    -138.796    -187.749
  P       60.107    -138.380    -187.657
  C       59.598    -140.235    -185.927
  O       59.628    -138.844    -186.198
  C       58.347    -140.593    -185.122
  O       58.494    -140.065    -183.777
  C       57.041    -140.030    -185.698
  O       56.012    -140.991    -185.440
  C       56.821    -138.775    -184.875
  O       55.466    -138.352    -184.873
  C       57.351    -139.229    -183.510
  N       57.709    -138.111    -182.647
  C       56.674    -137.412    -182.021
  O       55.498    -137.719    -182.215
  N       56.994    -136.371    -181.184
  C       58.231    -136.004    -181.050
  N       58.499    -135.009    -180.162
  C       59.344    -136.643    -181.776
  C       59.017    -137.692    -182.528
  O       59.259    -138.875    -188.777
  O       60.131    -136.790    -187.506
  H       55.176    -138.248    -185.799
  H       60.185    -136.322    -188.377
  H       60.357    -136.284    -181.653
  H       59.771    -138.237    -183.079
  H       56.612    -139.861    -183.007
  H       57.427    -137.960    -185.281
  H       57.098    -139.845    -186.774
  H       58.290    -141.687    -185.041
  H       57.737    -134.715    -179.561
  H       60.483    -140.492    -185.337
  H       59.427    -134.897    -179.771
  H       59.636    -140.798    -186.869
  P       55.305    -141.707    -186.690
  C       53.499    -139.899    -187.140
  O       54.649    -140.570    -187.608
  O       54.010    -142.366    -185.999
  O       56.098    -142.763    -187.387
  H       53.725    -143.134    -186.528
  H       53.196    -139.157    -187.886
  H       53.712    -139.378    -186.201
  H       52.676    -140.604    -186.994
  H       63.597    -138.610    -187.146
  H       62.399    -138.369    -185.897
  H       62.658    -137.137    -187.109

 3  4  5  6  7  8  9  10  11  12  13  23  27  28  29  30  32 0
 6-311+G(2d,p)
 ****
 34  35 0
 6-311+G(2d,p)
 ****
 1  2  14  15  16  17  18  19  20  21  22  24  25  26 0
 3-21G
 ****
 31  33  36  37  38  39  40  41  42  43  44  45  46 0
 3-21G
 ****


