%nproc=1
%NoSave
%Mem=1900MB
#P OB98/GEN NMR

erre ene a

0 1
  C      -34.740    -134.519     -66.135
  O      -33.941    -135.488     -65.479
  P      -32.395    -135.211     -65.139
  C      -31.635    -137.229     -66.567
  O      -31.574    -135.827     -66.371
  C      -30.233    -137.838     -66.498
  O      -30.353    -139.284     -66.534
  C      -29.306    -137.421     -67.646
  O      -27.981    -137.330     -67.110
  C      -29.414    -138.587     -68.609
  O      -28.305    -138.673     -69.491
  C      -29.545    -139.758     -67.629
  N      -30.137    -140.940     -68.245
  C      -29.313    -141.743     -69.034
  O      -28.134    -141.448     -69.222
  N      -29.846    -142.875     -69.601
  C      -31.109    -143.134     -69.463
  N      -31.575    -144.297     -69.993
  C      -32.037    -142.254     -68.728
  C      -31.483    -141.202     -68.134
  O      -31.955    -135.685     -63.798
  O      -32.214    -133.643     -65.372
  H      -28.313    -139.556     -69.909
  H      -32.462    -133.104     -64.579
  H      -33.088    -142.499     -68.665
  H      -32.083    -140.515     -67.553
  H      -28.564    -140.012     -67.210
  H      -30.320    -138.477     -69.215
  H      -29.584    -136.459     -68.087
  H      -29.789    -137.571     -65.531
  H      -30.880    -144.952     -70.335
  H      -32.053    -137.421     -67.559
  H      -32.435    -144.716     -69.657
  H      -32.298    -137.679     -65.821
  P      -27.042    -136.124     -67.603
  C      -25.621    -137.704     -69.092
  O      -26.408    -136.535     -69.016
  O      -25.782    -136.273     -66.617
  O      -27.613    -134.749     -67.492
  H      -25.345    -135.405     -66.530
  H      -25.281    -137.829     -70.124
  H      -26.208    -138.581     -68.811
  H      -24.745    -137.619     -68.444
  H      -35.731    -134.902     -66.264
  H      -34.316    -134.296     -67.092
  H      -34.776    -133.628     -65.544

 3  4  5  6  7  8  9  10  11  12  13  23  27  28  29  30  32 0
 6-311+G(2d,p)
 ****
 34  35 0
 6-311+G(2d,p)
 ****
 1  2  14  15  16  17  18  19  20  21  22  24  25  26 0
 3-21G
 ****
 31  33  36  37  38  39  40  41  42  43  44  45  46 0
 3-21G
 ****


