%nproc=1
%NoSave
%Mem=1900MB
#P OB98/GEN NMR

erre ene a

0 1
  C      -34.709      16.897    -355.375
  O      -33.723      17.517    -354.545
  P      -34.239      18.536    -353.420
  C      -33.302      17.075    -351.479
  O      -34.430      17.729    -352.051
  C      -33.760      16.008    -350.483
  O      -34.755      15.145    -351.063
  C      -32.640      15.083    -350.040
  O      -31.823      15.715    -349.074
  C      -33.413      13.884    -349.503
  O      -33.706      14.024    -348.103
  C      -34.712      13.902    -350.340
  N      -34.817      12.764    -351.239
  C      -35.689      11.748    -350.837
  O      -36.296      11.836    -349.766
  N      -35.830      10.647    -351.643
  C      -35.143      10.561    -352.739
  N      -35.320       9.444    -353.494
  C      -34.192      11.600    -353.185
  C      -34.078      12.664    -352.393
  O      -35.741      18.854    -353.874
  O      -33.422      19.782    -353.311
  H      -34.349      13.314    -347.897
  H      -35.981      19.767    -353.634
  H      -33.635      11.478    -354.101
  H      -33.403      13.475    -352.642
  H      -35.589      13.894    -349.681
  H      -32.840      12.958    -349.614
  H      -32.040      14.778    -350.908
  H      -34.197      16.514    -349.609
  H      -35.977       8.751    -353.158
  H      -32.660      17.801    -350.979
  H      -34.831       9.270    -354.360
  H      -32.707      16.631    -352.285
  P      -30.455      16.379    -349.574
  C      -31.284      18.808    -349.638
  O      -30.901      17.680    -350.400
  O      -30.007      15.383    -350.747
  O      -29.377      16.571    -348.561
  H      -29.124      15.627    -351.075
  H      -31.357      19.672    -350.303
  H      -30.542      19.023    -348.865
  H      -32.262      18.632    -349.181
  H      -34.228      16.247    -356.076
  H      -35.255      17.650    -355.904
  H      -35.382      16.330    -354.766

 3  4  5  6  7  8  9  10  11  12  13  21  23  27  28  29  30  32 0
 6-311+G(2d,p)
 ****
 34  35 0
 6-311+G(2d,p)
 ****
 1  2  14  15  16  17  18  19  20  22  24  25  26 0
 3-21G
 ****
 31  33  36  37  38  39  40  41  42  43  44  45  46 0
 3-21G
 ****


