%nproc=1
%NoSave
%Mem=1900MB
#P OB98/GEN NMR

erre ene a

0 1
  C      195.712     606.760     388.332
  O      195.354     605.933     389.422
  H      196.762     606.591     388.093
  H      195.577     607.813     388.594
  H      195.107     606.521     387.448
  P      193.822     605.888     389.893
  C      192.415     607.008     391.740
  O      193.658     606.996     391.043
  C      192.384     608.181     392.726
  O      193.459     608.053     393.682
  C      192.576     609.554     392.066
  O      191.383     609.953     391.410
  C      192.965     610.385     393.278
  O      191.809     610.744     394.053
  C      193.860     609.396     394.061
  N      195.287     609.610     393.822
  C      196.022     610.104     394.908
  O      195.526     610.368     395.994
  N      197.355     610.335     394.653
  C      197.979     610.211     393.444
  O      199.108     610.635     393.217
  C      197.173     609.613     392.371
  C      195.886     609.346     392.599
  O      193.290     604.536     390.239
  O      193.033     606.535     388.661
  H      192.626     605.827     388.126
  H      191.450     609.912     394.418
  H      197.883     610.747     395.411
  H      197.653     609.430     391.417
  H      195.265     608.935     391.806
  H      193.675     609.486     395.144
  H      193.466     611.312     392.998
  H      193.418     609.512     391.366
  H      191.436     608.144     393.275
  H      192.306     606.074     392.285
  H      191.603     607.095     391.010
  P      191.203     611.458     390.896
  C      190.883     613.792     391.899
  O      190.943     612.409     392.164
  O      190.212     611.633     389.785
  O      192.679     611.893     390.411
  H      192.624     612.224     389.489
  H      190.707     614.323     392.811
  H      190.087     613.989     391.212
  H      191.810     614.114     391.472

 6  7  8  9  10  11  12  13  14  15  16  27  31  32  33  34  35 0
 6-311+G(2d,p)
 ****
 36  37 0
 6-311+G(2d,p)
 ****
 1  2  3  4  5  17  18  19  20  21  22  23  24  25 0
 3-21G
 ****
 26  28  29  30  38  39  40  41  42  43  44  45 0
 3-21G
 ****


