%nproc=1
%NoSave
%Mem=1900MB
#P OB98/GEN NMR

erre ene a

0 1
  C     -277.883     360.283    -107.502
  O     -278.489     361.149    -108.436
  H     -278.421     360.350    -106.554
  H     -276.844     360.575    -107.337
  H     -277.920     359.247    -107.857
  P     -277.979     361.050    -109.953
  C     -279.945     362.622    -110.584
  O     -278.561     362.336    -110.716
  C     -280.227     364.071    -110.983
  O     -279.525     364.401    -112.203
  C     -281.701     364.372    -111.243
  O     -282.414     364.627    -110.037
  C     -281.580     365.631    -112.088
  O     -281.284     366.758    -111.240
  C     -280.364     365.303    -112.972
  N     -281.997     366.085    -117.705
  C     -281.780     366.991    -116.680
  N     -282.046     368.288    -116.950
  N     -281.355     366.651    -115.493
  C     -281.141     365.315    -115.360
  C     -281.319     364.331    -116.307
  C     -281.787     364.715    -117.615
  O     -281.972     363.965    -118.560
  N     -280.988     363.102    -115.804
  C     -280.633     363.338    -114.554
  N     -280.716     364.672    -114.236
  O     -278.849     359.844    -110.557
  O     -276.519     360.802    -110.126
  H     -281.981     366.789    -110.554
  H     -278.294     359.344    -111.190
  H     -282.347     366.400    -118.596
  H     -280.308     362.587    -113.845
  H     -279.772     366.189    -113.212
  H     -282.499     365.865    -112.626
  H     -282.431     368.606    -117.827
  H     -282.174     363.583    -111.840
  H     -281.863     368.969    -116.225
  H     -279.831     364.716    -110.190
  H     -280.247     362.471    -109.541
  H     -280.514     361.935    -111.229
  P     -283.971     364.258    -110.002
  C     -283.630     363.755    -107.482
  O     -284.415     364.403    -108.467
  O     -283.976     362.676    -110.244
  O     -284.813     364.981    -111.005
  H     -284.840     362.394    -110.600
  H     -284.047     363.941    -106.514
  H     -282.629     364.133    -107.518
  H     -283.621     362.702    -107.670

 6  7  8  9  10  11  12  13  14  15  26  29  33  34 0
 6-311+G(2d,p)
 ****
 36  38  39  40  41 0
 6-311+G(2d,p)
 ****
 1  2  3  4  5  16  17  18  19  20  21  22  23  24  25 0
 3-21G
 ****
 27  28  30  31  32  35  37  42  43  44  45  46  47 0
 3-21G
 ****
 48  49 0
 3-21G
 ****


