%nproc=1
%NoSave
%Mem=1900MB
#P OB98/GEN NMR

erre ene a

0 1
  C     -182.358     219.113     666.121
  O     -181.533     219.531     665.046
  H     -182.099     219.698     667.008
  H     -182.182     218.055     666.333
  H     -183.411     219.278     665.878
  P     -181.871     218.921     663.600
  C     -179.638     217.535     663.605
  O     -180.458     218.501     662.968
  C     -178.227     217.556     663.018
  O     -178.296     217.167     661.624
  C     -177.552     218.930     663.084
  O     -176.154     218.739     663.320
  C     -177.757     219.490     661.685
  O     -176.796     220.487     661.362
  C     -177.678     218.204     660.840
  N     -178.325     218.356     659.537
  C     -177.661     219.143     658.591
  O     -176.589     219.681     658.874
  N     -178.240     219.334     657.365
  C     -179.413     218.845     657.122
  N     -179.946     219.094     655.894
  C     -180.174     218.049     658.104
  C     -179.574     217.837     659.275
  O     -182.280     220.234     662.779
  O     -182.909     217.850     663.609
  H     -177.052     221.327     661.807
  H     -181.683     220.985     662.929
  H     -181.155     217.669     657.860
  H     -180.055     217.256     660.052
  H     -176.633     217.919     660.668
  H     -178.750     219.939     661.600
  H     -177.973     219.573     663.862
  H     -177.626     216.796     663.529
  H     -179.401     219.665     655.260
  H     -180.067     216.536     663.482
  H     -180.874     218.809     655.619
  H     -179.610     217.768     664.672
  P     -175.592     218.781     664.816
  C     -175.013     221.294     665.029
  O     -174.520     219.964     664.946
  O     -175.173     217.468     665.391
  O     -176.845     219.369     665.641
  H     -176.900     218.879     666.483
  H     -174.191     221.974     665.111
  H     -175.642     221.388     665.890
  H     -175.577     221.521     664.149

 6  7  8  9  10  11  12  13  14  15  16  26  30  31  32  33  35 0
 6-311+G(2d,p)
 ****
 37  38 0
 6-311+G(2d,p)
 ****
 1  2  3  4  5  17  18  19  20  21  22  23  24  25 0
 3-21G
 ****
 27  28  29  34  36  39  40  41  42  43  44  45  46 0
 3-21G
 ****


