%nproc=1
%NoSave
%Mem=1900MB
#P OB98/GEN NMR

erre ene a

0 1
  C       35.902    -232.661     -79.141
  O       36.672    -233.714     -78.579
  P       38.241    -233.754     -78.916
  C       39.362    -233.441     -81.244
  O       38.360    -234.096     -80.478
  C       39.032    -233.524     -82.730
  O       37.781    -232.866     -83.017
  C       40.056    -232.851     -83.638
  O       41.188    -233.672     -83.875
  C       39.246    -232.679     -84.911
  O       39.211    -233.917     -85.647
  C       37.854    -232.342     -84.363
  N       36.442    -228.360     -87.153
  C       36.419    -229.705     -87.458
  N       36.017    -230.030     -88.708
  N       36.757    -230.650     -86.620
  C       37.143    -230.175     -85.410
  C       37.206    -228.867     -84.988
  C       36.846    -227.831     -85.934
  O       36.898    -226.619     -85.737
  N       37.642    -228.779     -83.691
  C       37.838    -230.031     -83.324
  N       37.594    -230.913     -84.345
  O       38.737    -235.100     -78.207
  O       39.006    -232.559     -78.458
  H       40.140    -234.196     -85.763
  H       39.709    -235.090     -78.112
  H       36.183    -227.670     -87.839
  H       38.173    -230.341     -82.343
  H       37.060    -232.820     -84.944
  H       39.666    -231.921     -85.581
  H       35.805    -229.349     -89.421
  H       40.340    -231.865     -83.248
  H       36.052    -231.007     -88.979
  H       38.925    -234.586     -82.993
  H       40.327    -233.915     -81.052
  H       39.427    -232.394     -80.930
  P       42.567    -232.919     -84.211
  C       43.126    -231.155     -86.035
  O       42.367    -232.294     -85.669
  O       43.589    -234.128     -84.444
  O       43.032    -231.980     -83.146
  H       44.503    -233.843     -84.247
  H       43.071    -231.029     -87.121
  H       44.177    -231.277     -85.752
  H       42.717    -230.267     -85.555
  H       34.882    -232.761     -78.833
  H       35.959    -232.708     -80.208
  H       36.285    -231.720     -78.805

 3  4  5  6  7  8  9  10  11  12  23  26  30  31 0
 6-311+G(2d,p)
 ****
 33  35  36  37  38 0
 6-311+G(2d,p)
 ****
 1  2  13  14  15  16  17  18  19  20  21  22  24  25 0
 3-21G
 ****
 27  28  29  32  34  39  40  41  42  43  44  45  46  47  48  49 0
 3-21G
 ****


