%nproc=1
%NoSave
%Mem=1900MB
#P OB98/GEN NMR

erre ene a

0 1
  C      273.941     129.132    -205.626
  O      274.715     128.026    -206.083
  P      275.012     126.826    -205.064
  C      277.121     127.649    -203.694
  O      275.737     127.390    -203.759
  C      277.380     128.782    -202.688
  O      276.830     128.441    -201.399
  C      278.861     129.076    -202.480
  O      279.364     129.990    -203.437
  C      278.879     129.614    -201.062
  O      278.429     130.980    -201.039
  C      277.838     128.691    -200.379
  N      278.304     127.394    -199.844
  C      279.091     127.358    -198.696
  O      279.448     128.354    -198.073
  N      279.464     126.115    -198.260
  C      279.002     124.923    -198.734
  O      279.324     123.839    -198.264
  C      278.056     125.016    -199.849
  C      277.765     126.219    -200.352
  O      276.149     125.979    -205.798
  O      273.816     125.989    -204.731
  H      278.541     131.306    -200.129
  H      275.817     125.089    -206.025
  H      280.093     126.073    -197.473
  H      277.627     124.097    -200.226
  H      277.064     126.297    -201.180
  H      277.346     129.215    -199.551
  H      279.886     129.616    -200.652
  H      279.436     128.146    -202.493
  H      276.869     129.685    -203.045
  H      277.511     127.926    -204.678
  H      277.651     126.741    -203.388
  P      280.352     129.480    -204.587
  C      282.227     130.531    -203.187
  O      281.800     129.386    -203.902
  O      280.295     130.225    -205.878
  O      279.954     127.936    -204.766
  H      279.320     127.824    -205.511
  H      283.143     130.283    -202.644
  H      281.462     130.844    -202.472
  H      282.438     131.345    -203.886
  H      273.833     129.843    -206.418
  H      274.435     129.594    -204.797
  H      272.975     128.789    -205.320

 3  4  5  6  7  8  9  10  11  12  13  23  28  29  30  31  32 0
 6-311+G(2d,p)
 ****
 33  34 0
 6-311+G(2d,p)
 ****
 1  2  14  15  16  17  18  19  20  21  22  24  25  26  27 0
 3-21G
 ****
 35  36  37  38  39  40  41  42  43  44  45 0
 3-21G
 ****


