%nproc=1
%NoSave
%Mem=1900MB
#P OB98/GEN NMR

erre ene a

0 1
  C     -566.752    -114.535    -705.059
  O     -566.906    -115.825    -705.676
  P     -566.321    -116.189    -707.128
  C     -564.635    -118.004    -706.372
  O     -565.827    -117.718    -707.095
  C     -564.557    -119.502    -706.045
  O     -565.454    -119.822    -704.954
  C     -564.984    -120.453    -707.158
  O     -564.017    -120.516    -708.201
  C     -565.186    -121.752    -706.397
  O     -563.946    -122.461    -706.229
  C     -565.697    -121.255    -705.026
  N     -567.104    -121.558    -704.798
  C     -567.410    -122.892    -704.519
  O     -566.546    -123.756    -704.559
  N     -568.728    -123.204    -704.229
  C     -569.646    -122.291    -704.317
  N     -570.911    -122.666    -704.001
  C     -569.365    -120.905    -704.750
  C     -568.087    -120.615    -704.969
  O     -565.277    -115.233    -707.617
  O     -567.591    -116.201    -708.106
  H     -567.306    -116.005    -709.014
  H     -563.659    -122.740    -707.113
  H     -570.173    -120.198    -704.855
  H     -567.807    -119.612    -705.276
  H     -565.093    -121.699    -704.222
  H     -565.874    -122.426    -706.913
  H     -565.944    -120.096    -707.575
  H     -563.522    -119.728    -705.724
  H     -571.068    -123.626    -703.698
  H     -564.654    -117.443    -705.437
  H     -571.705    -122.024    -704.019
  H     -563.769    -117.688    -706.955
  P     -564.417    -121.370    -709.497
  C     -563.831    -119.431    -711.136
  O     -563.596    -120.779    -710.745
  O     -565.929    -120.933    -709.802
  O     -564.295    -122.859    -709.328
  H     -566.437    -121.715    -710.075
  H     -562.932    -119.047    -711.607
  H     -564.100    -118.802    -710.276
  H     -564.647    -119.415    -711.864
  H     -567.226    -114.540    -704.100
  H     -567.205    -113.788    -705.677
  H     -565.711    -114.318    -704.942

 3  4  5  6  7  8  9  10  11  12  13  24  27  28  29  30  32 0
 6-311+G(2d,p)
 ****
 34  35 0
 6-311+G(2d,p)
 ****
 1  2  14  15  16  17  18  19  20  21  22  23  25  26 0
 3-21G
 ****
 31  33  36  37  38  39  40  41  42  43  44  45  46 0
 3-21G
 ****


