%nproc=1
%NoSave
%Mem=1900MB
#P OB98/GEN NMR

erre ene a

0 1
  C      156.327     244.306    -294.472
  O      157.695     244.096    -294.185
  H      155.783     243.363    -294.376
  H      155.921     245.019    -293.748
  H      156.197     244.713    -295.478
  P      158.565     243.324    -295.291
  C      158.784     245.057    -297.212
  O      159.395     244.453    -296.082
  C      159.766     246.000    -297.906
  O      159.208     246.377    -299.198
  C      160.063     247.292    -297.127
  O      161.448     247.611    -297.290
  C      159.228     248.332    -297.852
  O      159.746     249.650    -297.704
  C      159.277     247.813    -299.284
  N      156.984     252.129    -300.685
  C      158.196     251.886    -300.145
  N      158.755     250.693    -299.852
  C      157.952     249.687    -300.237
  C      156.695     249.777    -300.804
  C      156.198     251.077    -301.016
  N      154.937     251.336    -301.503
  N      156.163     248.517    -301.004
  C      157.073     247.685    -300.538
  N      158.171     248.344    -300.062
  O      157.451     242.870    -296.349
  O      159.366     242.171    -294.791
  H      159.153     250.276    -298.162
  H      157.083     242.006    -296.084
  H      158.792     252.763    -299.907
  H      156.978     246.609    -300.494
  H      160.206     248.082    -299.802
  H      158.203     248.318    -297.460
  H      159.820     247.229    -296.061
  H      160.693     245.449    -298.108
  H      157.913     245.634    -296.883
  H      154.630     252.296    -301.516
  H      154.300     250.564    -301.646
  H      158.451     244.276    -297.904
  P      162.462     247.087    -296.165
  C      162.649     244.589    -296.871
  O      163.292     245.853    -296.759
  O      161.495     246.401    -295.089
  O      163.292     248.167    -295.548
  H      161.860     246.506    -294.192
  H      163.333     243.876    -297.282
  H      161.797     244.678    -297.513
  H      162.333     244.263    -295.902

 6  7  8  9  10  11  12  13  14  15  25  28  32  33  34  35 0
 6-311+G(2d,p)
 ****
 36  39  40 0
 6-311+G(2d,p)
 ****
 1  2  3  4  5  16  17  18  19  20  21  22  23  24 0
 3-21G
 ****
 26  27  29  30  31  37  38  41  42  43  44  45  46  47 0
 3-21G
 ****
 48 0
 3-21G
 ****


