%nproc=1
%NoSave
%Mem=1900MB
#P OB98/GEN NMR

erre ene a

0 1
  C        8.505     -72.339      95.708
  O        7.720     -73.337      96.342
  P        7.336     -74.639      95.485
  C        5.176     -73.367      94.844
  O        6.262     -74.162      94.388
  C        4.247     -73.005      93.690
  O        4.953     -72.115      92.781
  C        3.757     -74.209      92.870
  O        2.357     -74.055      92.592
  C        4.506     -74.072      91.554
  O        3.813     -74.696      90.479
  C        4.604     -72.550      91.450
  N        6.301     -68.439      89.055
  C        5.488     -68.540      90.167
  N        5.016     -67.379      90.676
  N        5.162     -69.674      90.729
  C        5.732     -70.750      90.133
  C        6.560     -70.778      89.034
  C        6.863     -69.519      88.387
  O        7.503     -69.370      87.348
  N        6.950     -72.059      88.735
  C        6.358     -72.806      89.648
  N        5.567     -72.063      90.488
  O        6.467     -75.501      96.518
  O        8.489     -75.423      94.963
  H        4.387     -74.628      89.692
  H        6.858     -76.390      96.615
  H        6.506     -67.540      88.652
  H        6.443     -73.883      89.716
  H        3.628     -72.118      91.195
  H        5.493     -74.535      91.652
  H        5.256     -66.470      90.313
  H        3.933     -75.178      93.346
  H        4.438     -67.431      91.505
  H        3.397     -72.437      94.092
  H        5.565     -72.449      95.295
  H        4.623     -73.926      95.608
  P        1.464     -75.383      92.722
  C        1.505     -75.744      90.142
  O        1.798     -76.261      91.425
  O       -0.025     -74.856      92.453
  O        1.596     -76.077      94.038
  H       -0.677     -75.449      92.869
  H        1.213     -74.688      90.178
  H        0.688     -76.321      89.703
  H        2.390     -75.843      89.508
  H        8.682     -71.536      96.393
  H        7.985     -71.968      94.850
  H        9.440     -72.761      95.403

 3  4  5  6  7  8  9  10  11  12  23  26  30  31  33  0
 6-311+G(2d,p)
 ****
 35  36  37  38 0
 6-311+G(2d,p)
 ****
 1  2  13  14  15  16  17  18  19  20  21  22  24  25  27  28  29 0
 3-21G
 ****
 32  34  39  40  41  42  43  44  45  46  47  48  49 0
 3-21G
 ****


