%nproc=1
%NoSave
%Mem=1900MB
#P OB98/GEN NMR

erre ene a

0 1
  C     -153.261     168.177    -333.481
  O     -153.529     169.062    -332.401
  P     -153.525     170.640    -332.713
  C     -151.328     171.561    -331.678
  O     -151.978     171.051    -332.837
  C     -150.472     172.773    -332.036
  O     -149.589     172.453    -333.132
  C     -151.259     173.994    -332.486
  O     -151.762     174.743    -331.388
  C     -150.179     174.781    -333.212
  O     -149.352     175.471    -332.255
  C     -149.382     173.669    -333.902
  N     -148.595     175.062    -338.757
  C     -148.091     175.530    -337.595
  N     -148.356     175.110    -336.339
  C     -149.280     174.131    -336.352
  C     -149.911     173.585    -337.455
  C     -149.529     174.080    -338.711
  N     -150.027     173.587    -339.897
  N     -150.799     172.604    -337.068
  C     -150.699     172.552    -335.755
  N     -149.783     173.449    -335.275
  O     -153.968     171.286    -331.314
  O     -154.411     171.063    -333.835
  H     -148.959     174.788    -331.675
  H     -154.350     172.173    -331.464
  H     -147.369     176.334    -337.687
  H     -151.257     171.879    -335.119
  H     -148.305     173.868    -333.900
  H     -150.589     175.542    -333.887
  H     -152.052     173.720    -333.192
  H     -149.848     173.015    -331.163
  H     -150.689     170.784    -331.255
  H     -149.570     173.865    -340.753
  H     -150.564     172.727    -339.867
  H     -152.086     171.837    -330.935
  P     -153.335     175.066    -331.396
  C     -153.126     177.620    -330.968
  O     -153.455     176.586    -331.879
  O     -153.703     175.120    -329.837
  O     -154.159     174.065    -332.138
  H     -154.641     174.913    -329.699
  H     -152.961     178.542    -331.531
  H     -152.216     177.382    -330.412
  H     -153.956     177.775    -330.275
  H     -153.296     167.166    -333.131
  H     -152.289     168.383    -333.879
  H     -153.996     168.315    -334.246

 3  4  5  6  7  8  9  10  11  12  22  25  29  30  31  32 0
 6-311+G(2d,p)
 ****
 33  36  37 0
 6-311+G(2d,p)
 ****
 1  2  13  14  15  16  17  18  19  20  21  23  24  26 0
 3-21G
 ****
 27  28  34  35  38  39  40  41  42  43  44  45  46  47  48 0
 3-21G
 ****


