%nproc=1
%NoSave
%Mem=1900MB
#P OB98/GEN NMR

erre ene a

0 1
  C      572.264    -692.378     418.285
  O      573.008    -692.789     419.431
  P      574.279    -693.737     419.170
  C      576.071    -691.966     419.788
  O      575.522    -692.805     418.782
  C      576.887    -690.847     419.143
  O      576.118    -690.111     418.170
  C      577.370    -689.797     420.147
  O      578.456    -690.287     420.910
  C      577.725    -688.647     419.204
  O      579.011    -688.871     418.599
  C      576.625    -688.753     418.140
  N      573.585    -685.299     415.902
  C      574.595    -686.063     415.420
  N      575.358    -686.953     416.083
  C      574.981    -687.037     417.372
  C      573.976    -686.325     418.002
  C      573.254    -685.415     417.215
  N      572.240    -684.626     417.700
  N      573.894    -686.678     419.337
  C      574.846    -687.567     419.507
  N      575.524    -687.825     418.351
  O      573.909    -694.471     417.796
  O      574.530    -694.720     420.266
  H      578.970    -689.744     418.158
  H      573.693    -695.403     417.961
  H      574.816    -685.937     414.365
  H      575.088    -688.041     420.457
  H      577.006    -688.572     417.128
  H      577.766    -687.678     419.713
  H      576.547    -689.499     420.805
  H      577.752    -691.296     418.638
  H      576.713    -692.546     420.459
  H      571.831    -683.941     417.081
  H      572.047    -684.639     418.692
  H      575.255    -691.560     420.394
  P      578.168    -690.693     422.437
  C      578.664    -693.179     422.005
  O      577.675    -692.222     422.339
  O      576.808    -689.906     422.731
  O      579.292    -690.434     423.379
  H      576.168    -690.006     422.004
  H      578.211    -694.165     422.004
  H      579.467    -693.165     422.747
  H      579.070    -692.969     421.012
  H      571.450    -691.755     418.593
  H      571.882    -693.240     417.780
  H      572.902    -691.830     417.623

 3  4  5  6  7  8  9  10  11  12  22  25  29  30  31  32 0
 6-311+G(2d,p)
 ****
 33  36  37 0
 6-311+G(2d,p)
 ****
 1  2  13  14  15  16  17  18  19  20  21  23  24  26 0
 3-21G
 ****
 27  28  34  35  38  39  40  41  42  43  44  45  46  47  48 0
 3-21G
 ****


