%nproc=1
%NoSave
%Mem=1900MB
#P OB98/GEN NMR

erre ene a

0 1
  C      775.993     -94.695     421.165
  O      774.698     -94.358     421.622
  H      776.663     -94.747     422.031
  H      776.366     -93.933     420.475
  H      775.978     -95.670     420.675
  P      773.567     -94.198     420.497
  C      773.386     -96.660     419.718
  O      772.809     -95.613     420.487
  C      773.048     -98.022     420.320
  O      773.803     -98.236     421.519
  C      771.577     -98.184     420.691
  O      770.809     -98.557     419.569
  C      771.670     -99.325     421.706
  O      771.755    -100.582     421.003
  C      773.001     -99.033     422.427
  N      775.075     -98.308     427.065
  C      775.340     -99.203     426.099
  N      774.710     -99.387     424.914
  C      773.723     -98.483     424.769
  C      773.337     -97.501     425.661
  C      774.070     -97.419     426.865
  N      773.791     -96.491     427.845
  N      772.278     -96.768     425.171
  C      772.072     -97.261     423.968
  N      772.888     -98.324     423.687
  O      774.029     -93.681     419.176
  O      772.514     -93.252     421.256
  H      771.023    -100.589     420.352
  H      772.427     -93.523     422.188
  H      776.159     -99.885     426.310
  H      771.349     -96.872     423.252
  H      773.554     -99.955     422.635
  H      770.792     -99.377     422.354
  H      771.186     -97.290     421.197
  H      773.346     -98.792     419.594
  H      774.477     -96.540     419.672
  H      774.238     -96.632     428.741
  H      772.972     -95.925     427.749
  H      772.993     -96.580     418.698
  P      769.244     -98.900     419.701
  C      768.343     -97.176     418.015
  O      768.624     -98.547     418.264
  O      768.574     -98.267     420.873
  O      769.196    -100.491     419.744
  H      768.327    -100.795     420.082
  H      767.936     -97.068     417.031
  H      769.246     -96.607     418.092
  H      767.635     -96.821     418.734

 6  7  8  9  10  11  12  13  14  15  25  28  32  33  34  35 0
 6-311+G(2d,p)
 ****
 36  39  40 0
 6-311+G(2d,p)
 ****
 1  2  3  4  5  16  17  18  19  20  21  22  23  24 0
 3-21G
 ****
 26  27  29  30  31  37  38  41  42  43  44  45  46  47 0
 3-21G
 ****
 48 0
 3-21G
 ****


