%nproc=1
%NoSave
%Mem=1900MB
#P OB98/GEN NMR

erre ene a

0 1
  C      878.634    1648.745     -46.297
  O      879.012    1648.034     -45.103
  P      880.489    1647.939     -44.533
  C      880.002    1649.392     -42.420
  O      880.735    1649.216     -43.606
  C      880.237    1650.769     -41.756
  O      879.559    1651.814     -42.504
  C      879.628    1650.795     -40.336
  O      880.368    1650.291     -39.259
  C      879.148    1652.243     -40.140
  O      880.124    1653.059     -39.498
  C      878.941    1652.732     -41.595
  N      874.962    1655.957     -41.891
  C      876.235    1656.179     -41.411
  N      876.502    1657.409     -40.909
  N      877.183    1655.280     -41.436
  C      876.797    1654.063     -41.850
  C      875.544    1653.712     -42.335
  C      874.518    1654.725     -42.385
  O      873.377    1654.586     -42.807
  N      875.499    1652.388     -42.671
  C      876.696    1651.921     -42.399
  N      877.529    1652.915     -41.895
  O      881.533    1647.597     -45.539
  O      880.389    1646.727     -43.473
  H      880.228    1652.779     -38.581
  H      881.257    1646.281     -43.496
  H      874.284    1656.693     -41.882
  H      877.037    1650.896     -42.529
  H      879.437    1653.691     -41.767
  H      878.251    1652.264     -39.530
  H      875.787    1658.106     -40.781
  H      878.707    1650.200     -40.391
  H      877.374    1657.522     -40.379
  H      881.288    1651.043     -41.775
  H      880.308    1648.601     -41.727
  H      878.929    1649.256     -42.608
  P      880.422    1648.750     -38.790
  C      882.786    1648.371     -39.762
  O      881.415    1647.977     -39.779
  O      878.988    1648.155     -39.187
  O      880.719    1648.518     -37.332
  H      878.843    1647.312     -38.715
  H      883.297    1647.998     -40.679
  H      883.248    1647.891     -38.883
  H      882.889    1649.467     -39.703
  H      877.580    1648.647     -46.451
  H      879.157    1648.336     -47.136
  H      878.885    1649.780     -46.190

 3  4  5  6  7  8  9  10  11  12  23  26  30  31 0
 6-311+G(2d,p)
 ****
 33  35  36  37  38 0
 6-311+G(2d,p)
 ****
 1  2  13  14  15  16  17  18  19  20  21  22  24  25 0
 3-21G
 ****
 27  28  29  32  34  39  40  41  42  43  44  45  46  47  48  49 0
 3-21G
 ****


