%nproc=1
%NoSave
%Mem=1900MB
#P OB98/GEN NMR

erre ene a

0 1
  C     -673.394    -708.945    -213.506
  O     -673.802    -707.751    -212.857
  P     -673.799    -707.648    -211.258
  C     -675.716    -705.957    -211.671
  O     -675.233    -707.029    -210.873
  C     -677.244    -705.891    -211.598
  O     -677.799    -707.000    -212.328
  C     -677.809    -705.985    -210.190
  O     -677.666    -704.758    -209.495
  C     -679.244    -706.399    -210.484
  O     -680.035    -705.269    -210.867
  C     -679.062    -707.361    -211.697
  N     -679.077    -708.778    -211.314
  C     -680.184    -709.519    -211.767
  O     -681.059    -708.981    -212.449
  N     -680.235    -710.859    -211.467
  C     -679.284    -711.407    -210.775
  N     -679.349    -712.752    -210.561
  C     -678.139    -710.646    -210.236
  C     -678.105    -709.345    -210.549
  O     -672.627    -706.910    -210.679
  O     -673.913    -709.157    -210.739
  H     -679.709    -704.968    -211.722
  H     -673.039    -709.605    -210.642
  H     -677.379    -711.137    -209.634
  H     -677.271    -708.720    -210.213
  H     -679.843    -707.166    -212.450
  H     -679.758    -706.885    -209.628
  H     -677.310    -706.786    -209.628
  H     -677.574    -704.956    -212.077
  H     -680.048    -713.262    -211.091
  H     -675.409    -706.119    -212.711
  H     -678.537    -713.283    -210.292
  H     -675.260    -705.005    -211.323
  P     -676.984    -704.804    -208.050
  C     -677.918    -702.398    -207.765
  O     -677.709    -703.669    -207.163
  O     -675.516    -704.206    -208.328
  O     -676.906    -706.166    -207.427
  H     -674.849    -704.933    -208.361
  H     -678.631    -701.843    -207.130
  H     -678.330    -702.504    -208.757
  H     -676.982    -701.839    -207.784
  H     -673.466    -708.817    -214.566
  H     -674.027    -709.751    -213.200
  H     -672.381    -709.167    -213.241

 3  4  5  6  7  8  9  10  11  12  13  23  27  28  29  30  32 0
 6-311+G(2d,p)
 ****
 34  35 0
 6-311+G(2d,p)
 ****
 1  2  14  15  16  17  18  19  20  21  22  24  25  26 0
 3-21G
 ****
 31  33  36  37  38  39  40  41  42  43  44  45  46 0
 3-21G
 ****


