%nproc=1
%NoSave
%Mem=1900MB
#P OB98/GEN NMR

erre ene a

0 1
  C      273.404    -712.242     324.594
  O      274.431    -712.961     323.946
  H      272.595    -712.022     323.893
  H      273.007    -712.851     325.411
  H      273.798    -711.311     325.010
  P      275.070    -712.275     322.644
  C      277.217    -713.598     323.253
  O      276.331    -713.178     322.224
  C      277.484    -715.097     323.137
  O      277.907    -715.423     321.794
  C      278.585    -715.620     324.045
  O      278.131    -715.799     325.383
  C      278.895    -716.951     323.372
  O      277.921    -717.932     323.767
  C      278.729    -716.618     321.887
  N      282.881    -718.762     319.759
  C      281.803    -719.304     320.373
  N      280.742    -718.673     320.922
  C      280.858    -717.338     320.781
  C      281.900    -716.651     320.180
  C      282.954    -717.419     319.662
  N      284.055    -716.859     319.047
  N      281.665    -715.292     320.215
  C      280.503    -715.155     320.824
  N      279.977    -716.375     321.193
  O      275.751    -710.941     323.219
  O      274.109    -711.965     321.550
  H      278.012    -718.681     323.144
  H      275.665    -710.230     322.562
  H      281.780    -720.389     320.422
  H      280.008    -714.217     321.010
  H      278.191    -717.415     321.354
  H      279.884    -717.341     323.638
  H      279.472    -714.974     324.005
  H      276.540    -715.623     323.326
  H      276.761    -713.392     324.229
  H      284.675    -717.459     318.530
  H      284.098    -715.845     318.983
  H      278.144    -713.035     323.168
  P      279.177    -715.508     326.558
  C      277.256    -714.550     328.020
  O      278.315    -715.498     327.914
  O      279.543    -713.958     326.345
  O      280.395    -716.371     326.561
  H      280.426    -713.777     326.721
  H      276.774    -714.659     328.969
  H      276.546    -714.719     327.238
  H      277.653    -713.560     327.933

 6  7  8  9  10  11  12  13  14  15  25  28  32  33  34  35 0
 6-311+G(2d,p)
 ****
 36  39  40 0
 6-311+G(2d,p)
 ****
 1  2  3  4  5  16  17  18  19  20  21  22  23  24 0
 3-21G
 ****
 26  27  29  30  31  37  38  41  42  43  44  45  46  47  48 0
 3-21G
 ****


