%nproc=1
%NoSave
%Mem=1900MB
#P OB98/GEN NMR

erre ene a

0 1
  C      672.866     558.870     186.851
  O      674.255     558.609     186.764
  H      672.460     558.969     185.839
  H      672.678     559.807     187.384
  H      672.351     558.049     187.354
  P      675.101     558.576     188.121
  C      676.737     560.356     187.194
  O      675.815     560.015     188.218
  C      677.513     561.610     187.593
  O      676.630     562.748     187.672
  C      678.165     561.508     188.964
  O      679.322     560.692     188.915
  C      678.401     562.965     189.288
  O      679.575     563.463     188.620
  C      677.124     563.616     188.706
  N      676.104     563.852     189.729
  C      676.193     565.068     190.415
  O      677.089     565.874     190.160
  N      675.274     565.329     191.412
  C      674.338     564.465     191.668
  N      673.458     564.786     192.665
  C      674.197     563.179     190.954
  C      675.113     562.946     190.012
  O      676.033     557.417     188.316
  O      673.985     558.645     189.269
  H      679.350     563.483     187.670
  H      673.699     557.744     189.517
  H      673.404     562.494     191.209
  H      675.075     562.025     189.438
  H      677.367     564.576     188.232
  H      678.530     563.126     190.358
  H      677.450     561.109     189.694
  H      678.264     561.817     186.815
  H      673.605     565.674     193.127
  H      676.159     560.551     186.290
  H      672.650     564.244     192.896
  H      677.429     559.527     187.009
  P      680.183     560.400     190.230
  C      681.898     562.070     189.267
  O      681.140     561.683     190.416
  O      680.863     559.077     190.274
  O      679.103     560.603     191.415
  H      678.479     559.841     191.456
  H      682.493     562.927     189.504
  H      681.232     562.309     188.464
  H      682.536     561.263     188.972

 6  7  8  9  10  11  12  13  14  15  16  26  30  31  32  33  35 0
 6-311+G(2d,p)
 ****
 37  38 0
 6-311+G(2d,p)
 ****
 1  2  3  4  5  17  18  19  20  21  22  23  24  25 0
 3-21G
 ****
 27  28  29  34  36  39  40  41  42  43  44  45  46 0
 3-21G
 ****


