%nproc=1
%NoSave
%Mem=1900MB
#P OB98/GEN NMR

erre ene a

0 1
  C     -214.242     106.548    -368.307
  O     -212.889     106.903    -368.109
  H     -214.731     106.468    -367.331
  H     -214.302     105.579    -368.808
  H     -214.759     107.308    -368.900
  P     -212.042     107.272    -369.422
  C     -211.685     104.723    -369.773
  O     -212.054     105.964    -370.355
  C     -210.764     103.951    -370.713
  O     -211.510     103.451    -371.849
  C     -209.620     104.779    -371.290
  O     -208.524     104.867    -370.386
  C     -209.259     103.947    -372.509
  O     -208.492     102.793    -372.103
  C     -210.641     103.517    -373.015
  N     -212.069     104.060    -377.851
  C     -211.488     102.979    -377.209
  N     -211.248     101.889    -377.971
  N     -211.173     102.965    -375.943
  C     -211.458     104.128    -375.307
  C     -212.033     105.267    -375.832
  C     -212.389     105.263    -377.233
  O     -212.923     106.186    -377.844
  N     -212.182     106.239    -374.878
  C     -211.678     105.699    -373.784
  N     -211.222     104.422    -373.993
  O     -210.530     107.325    -368.885
  O     -212.424     108.547    -370.093
  H     -208.378     102.239    -372.895
  H     -210.052     108.029    -369.363
  H     -212.280     104.020    -378.830
  H     -211.625     106.188    -372.819
  H     -210.627     102.519    -373.469
  H     -208.650     104.497    -373.228
  H     -211.420     101.850    -378.962
  H     -209.960     105.768    -371.609
  H     -210.854     101.071    -377.520
  H     -210.375     103.080    -370.166
  H     -212.587     104.132    -369.584
  H     -211.178     104.913    -368.821
  P     -207.728     106.261    -370.315
  C     -206.115     105.164    -372.031
  O     -206.850     106.324    -371.659
  O     -206.634     105.994    -369.172
  O     -208.570     107.455    -370.022
  H     -206.344     106.842    -368.788
  H     -205.583     105.355    -372.940
  H     -206.789     104.346    -372.177
  H     -205.420     104.919    -371.256

 6  7  8  9  10  11  12  13  14  15  26  29  33  34 0
 6-311+G(2d,p)
 ****
 36  38  39  40  41 0
 6-311+G(2d,p)
 ****
 1  2  3  4  5  16  17  18  19  20  21  22  23  24  25 0
 3-21G
 ****
 27  28  30  31  32  35  37  42  43  44  45  46  47 0
 3-21G
 ****
 48  49 0
 3-21G
 ****


