%nproc=1
%NoSave
%Mem=1900MB
#P OB98/GEN NMR

erre ene a

0 1
  C     -330.649     178.242    -412.084
  O     -329.419     177.734    -411.584
  P     -328.896     176.332    -412.166
  C     -329.721     173.866    -412.092
  O     -330.012     175.229    -411.818
  C     -330.910     173.181    -412.778
  O     -331.103     173.786    -414.087
  C     -330.728     171.665    -412.995
  O     -332.026     171.073    -412.849
  C     -330.255     171.605    -414.438
  O     -330.371     170.316    -415.030
  C     -331.109     172.708    -415.057
  N     -331.489     172.185    -420.134
  C     -332.186     171.635    -419.118
  N     -332.035     171.828    -417.787
  C     -331.044     172.699    -417.543
  C     -330.228     173.325    -418.477
  C     -330.484     173.043    -419.833
  N     -329.753     173.600    -420.864
  N     -329.294     174.137    -417.850
  C     -329.544     173.996    -416.562
  N     -330.606     173.166    -416.326
  O     -327.696     175.960    -411.179
  O     -328.464     176.366    -413.600
  H     -329.814     169.680    -414.540
  H     -326.953     175.547    -411.670
  H     -332.981     170.951    -419.407
  H     -328.977     174.470    -415.762
  H     -332.146     172.385    -415.201
  H     -329.187     171.873    -414.471
  H     -330.040     171.196    -412.277
  H     -331.807     173.374    -412.183
  H     -329.519     173.341    -411.146
  H     -329.883     173.181    -421.779
  H     -328.885     174.068    -420.624
  H     -328.811     173.801    -412.711
  P     -332.184     169.479    -413.026
  C     -332.228     167.975    -415.104
  O     -332.403     169.289    -414.609
  O     -333.671     169.263    -412.462
  O     -331.127     168.652    -412.362
  H     -334.298     169.869    -412.876
  H     -332.499     167.963    -416.163
  H     -332.878     167.277    -414.561
  H     -331.190     167.670    -415.008
  H     -330.869     179.175    -411.609
  H     -331.433     177.544    -411.878
  H     -330.571     178.389    -413.141

 3  4  5  6  7  8  9  10  11  12  22  25  29  30  31  32 0
 6-311+G(2d,p)
 ****
 33  36  37 0
 6-311+G(2d,p)
 ****
 1  2  13  14  15  16  17  18  19  20  21  23  24  26 0
 3-21G
 ****
 27  28  34  35  38  39  40  41  42  43  44  45  46  47  48 0
 3-21G
 ****


