%nproc=1
%NoSave
%Mem=1900MB
#P OB98/GEN NMR

erre ene a

0 1
  C     -428.571     439.134    -373.768
  O     -429.385     438.105    -374.316
  P     -430.855     438.508    -374.827
  C     -430.254     437.996    -377.313
  O     -430.661     438.974    -376.357
  C     -431.354     437.777    -378.352
  O     -431.584     439.010    -379.067
  C     -431.016     436.738    -379.413
  O     -431.250     435.419    -378.952
  C     -432.003     437.124    -380.508
  O     -433.296     436.551    -380.221
  C     -432.053     438.655    -380.398
  N     -431.963     440.750    -385.011
  C     -433.012     440.150    -384.336
  N     -434.208     440.129    -384.961
  N     -432.890     439.616    -383.141
  C     -431.643     439.738    -382.624
  C     -430.538     440.310    -383.200
  C     -430.663     440.848    -384.536
  O     -429.764     441.337    -385.217
  N     -429.449     440.264    -382.348
  C     -429.923     439.706    -381.250
  N     -431.240     439.351    -381.381
  O     -431.137     439.890    -374.060
  O     -431.917     437.507    -374.581
  H     -433.152     435.603    -380.064
  H     -432.098     440.027    -373.978
  H     -432.128     441.156    -385.918
  H     -429.334     439.551    -380.351
  H     -433.086     439.035    -380.477
  H     -431.703     436.755    -381.496
  H     -434.385     440.635    -385.819
  H     -429.986     436.877    -379.780
  H     -434.994     439.728    -384.456
  H     -432.278     437.518    -377.824
  H     -430.070     437.045    -376.789
  H     -429.334     438.323    -377.792
  P     -429.959     434.452    -378.857
  C     -430.083     434.144    -376.271
  O     -429.372     434.685    -377.379
  O     -428.895     435.176    -379.808
  O     -430.215     433.045    -379.256
  H     -428.247     434.523    -380.155
  H     -430.533     433.175    -376.513
  H     -430.869     434.851    -375.964
  H     -429.377     434.006    -375.445
  H     -427.628     438.724    -373.472
  H     -429.058     439.558    -372.915
  H     -428.414     439.895    -374.504

 3  4  5  6  7  8  9  10  11  12  23  26  30  31  33  0
 6-311+G(2d,p)
 ****
 35  36  37  38 0
 6-311+G(2d,p)
 ****
 1  2  13  14  15  16  17  18  19  20  21  22  24  25  27  28  29 0
 3-21G
 ****
 32  34  39  40  41  42  43  44  45  46  47  48  49 0
 3-21G
 ****


