%nproc=1
%NoSave
%Mem=1900MB
#P OB98/GEN NMR

erre ene a

0 1
  C      148.694      52.491     340.695
  O      147.534      53.307     340.697
  P      146.558      53.185     341.968
  C      144.607      52.352     340.439
  O      145.435      52.113     341.567
  C      143.638      51.180     340.249
  O      144.371      49.975     339.938
  C      142.796      50.860     341.472
  O      141.681      51.734     341.550
  C      142.421      49.407     341.217
  O      141.315      49.314     340.300
  C      143.709      48.852     340.589
  N      146.138      44.574     341.750
  C      145.161      44.812     340.799
  N      144.812      43.764     340.017
  N      144.578      45.971     340.631
  C      145.014      46.919     341.490
  C      145.967      46.806     342.481
  C      146.639      45.534     342.624
  O      147.573      45.297     343.378
  N      146.127      47.980     343.167
  C      145.298      48.813     342.572
  N      144.614      48.222     341.530
  O      145.782      54.586     341.967
  O      147.239      52.906     343.271
  H      141.117      48.376     340.128
  H      146.186      55.200     342.606
  H      146.563      43.666     341.822
  H      145.172      49.850     342.835
  H      143.499      48.108     339.804
  H      142.116      48.891     342.130
  H      145.201      42.840     340.104
  H      143.402      50.930     342.386
  H      144.095      43.921     339.320
  H      142.998      51.410     339.389
  H      145.232      52.452     339.546
  H      144.054      53.289     340.591
  P      140.763      51.655     342.867
  C      138.718      50.602     341.657
  O      139.721      50.458     342.644
  O      139.863      52.970     342.769
  O      141.528      51.608     344.151
  H      139.712      53.329     343.663
  H      138.461      49.613     341.264
  H      139.048      51.239     340.833
  H      137.827      51.043     342.117
  H      149.253      52.668     339.800
  H      148.406      51.461     340.738
  H      149.298      52.728     341.545

 3  4  5  6  7  8  9  10  11  12  23  26  30  31 0
 6-311+G(2d,p)
 ****
 33  35  36  37  38 0
 6-311+G(2d,p)
 ****
 1  2  13  14  15  16  17  18  19  20  21  22  24  25 0
 3-21G
 ****
 27  28  29  32  34  39  40  41  42  43  44  45  46  47  48  49 0
 3-21G
 ****


