%nproc=1
%NoSave
%Mem=1900MB
#P OB98/GEN NMR

erre ene a

0 1
  C      548.721     625.984    1966.652
  O      547.648     625.251    1966.031
  P      546.197     625.047    1966.661
  C      544.623     626.111    1964.830
  O      545.249     626.210    1966.094
  C      543.903     627.407    1964.459
  O      542.945     627.718    1965.538
  C      544.845     628.615    1964.347
  O      544.555     629.462    1963.237
  C      544.789     629.236    1965.724
  O      545.210     630.598    1965.774
  C      543.328     628.973    1966.129
  N      542.846     631.655    1970.476
  C      543.199     632.082    1969.197
  N      543.494     633.397    1969.060
  N      543.285     631.297    1968.174
  C      543.072     630.002    1968.449
  C      542.706     629.428    1969.662
  C      542.569     630.318    1970.786
  O      542.241     629.996    1971.920
  N      542.558     628.060    1969.547
  C      542.813     627.822    1968.296
  N      543.133     628.931    1967.570
  O      546.137     624.771    1968.131
  O      545.652     623.731    1965.894
  H      545.201     630.857    1966.725
  H      545.054     623.279    1966.523
  H      542.762     632.312    1971.221
  H      542.799     626.808    1967.834
  H      542.658     629.745    1965.756
  H      545.456     628.672    1966.386
  H      543.542     634.043    1969.849
  H      545.879     628.296    1964.143
  H      543.972     633.665    1968.191
  H      543.323     627.239    1963.529
  H      543.933     625.280    1964.893
  H      545.367     625.842    1964.069
  P      545.580     630.191    1962.228
  C      544.699     628.711    1960.297
  O      545.861     629.195    1961.007
  O      546.993     630.182    1963.011
  O      545.174     631.584    1961.830
  H      547.269     631.110    1963.134
  H      545.013     627.853    1959.678
  H      544.319     629.502    1959.668
  H      543.951     628.379    1961.018
  H      549.581     625.964    1966.016
  H      548.962     625.535    1967.593
  H      548.416     626.998    1966.809

 3  4  5  6  7  8  9  10  11  12  23  26  30  31 0
 6-311+G(2d,p)
 ****
 33  35  36  37  38 0
 6-311+G(2d,p)
 ****
 1  2  13  14  15  16  17  18  19  20  21  22  24  25 0
 3-21G
 ****
 27  28  29  32  34  39  40  41  42  43  44  45  46  47  48  49 0
 3-21G
 ****


