%nproc=1
%NoSave
%Mem=1900MB
#P OB98/GEN NMR

erre ene a

0 1
  C        6.758      10.181     143.652
  O        7.273       9.295     144.626
  H        7.399      10.143     142.769
  H        6.757      11.201     144.042
  H        5.744       9.889     143.367
  P        6.423       9.130     145.977
  C        6.269      10.408     148.229
  O        6.891      10.318     146.954
  C        7.255      10.923     149.275
  O        8.328       9.946     149.433
  C        7.908      12.268     148.921
  O        8.100      13.001     150.138
  C        9.274      11.855     148.398
  O       10.229      12.911     148.465
  C        9.569      10.671     149.317
  N       14.538      10.437     148.565
  C       13.766      11.413     149.167
  N       14.417      12.496     149.642
  N       12.469      11.334     149.291
  C       11.952      10.181     148.801
  C       12.605       9.143     148.179
  C       14.041       9.255     148.024
  O       14.774       8.433     147.484
  N       11.722       8.163     147.797
  C       10.542       8.608     148.188
  N       10.630       9.828     148.802
  O        7.066       7.821     146.637
  O        4.948       8.998     145.794
  H        9.768      13.747     148.243
  H        6.559       7.029     146.378
  H       15.533      10.553     148.483
  H        9.600       8.094     148.051
  H        9.876      10.989     150.322
  H        9.196      11.530     147.352
  H       15.419      12.604     149.624
  H        7.338      12.875     148.210
  H       13.874      13.202     150.125
  H        6.740      10.982     150.241
  H        5.918       9.414     148.524
  H        5.409      11.084     148.162
  P        6.932      13.986     150.617
  C        6.018      16.320     149.923
  O        6.982      15.301     149.703
  O        7.469      14.517     152.029
  O        5.594      13.334     150.745
  H        6.716      14.753     152.603
  H        6.186      17.124     149.237
  H        6.105      16.683     150.926
  H        5.037      15.921     149.772

 6  7  8  9  10  11  12  13  14  15  26  29  33  34 0
 6-311+G(2d,p)
 ****
 36  38  39  40  41 0
 6-311+G(2d,p)
 ****
 1  2  3  4  5  16  17  18  19  20  21  22  23  24  25 0
 3-21G
 ****
 27  28  30  31  32  35  37  42  43  44  45  46  47 0
 3-21G
 ****
 48  49 0
 3-21G
 ****


