%nproc=1
%NoSave
%Mem=1900MB
#P OB98/GEN NMR

erre ene a

0 1
  C      202.500      70.498    -243.876
  O      203.620      69.637    -243.921
  H      202.704      71.373    -244.499
  H      202.324      70.832    -242.849
  H      201.612      69.989    -244.260
  P      203.524      68.264    -243.087
  C      202.116      66.961    -244.849
  O      203.376      67.111    -244.201
  C      202.192      65.864    -245.916
  O      202.828      66.399    -247.105
  C      202.991      64.632    -245.468
  O      202.303      63.447    -245.878
  C      204.318      64.768    -246.197
  O      204.951      63.505    -246.402
  C      203.907      65.513    -247.471
  N      205.024      66.257    -248.056
  C      205.645      65.690    -249.174
  O      205.249      64.607    -249.618
  N      206.724      66.328    -249.728
  C      207.188      67.410    -249.176
  N      208.275      67.984    -249.764
  C      206.594      68.021    -247.970
  C      205.526      67.400    -247.468
  O      202.069      68.344    -242.430
  O      204.623      68.040    -242.103
  H      205.782      63.663    -246.908
  H      201.955      67.667    -241.720
  H      207.028      68.910    -247.538
  H      205.027      67.774    -246.580
  H      203.521      64.810    -248.227
  H      204.996      65.393    -245.602
  H      203.144      64.598    -244.389
  H      201.168      65.590    -246.206
  H      208.659      67.534    -250.584
  H      201.841      67.909    -245.317
  H      208.737      68.810    -249.406
  H      201.360      66.695    -244.100
  P      201.786      62.490    -244.696
  C      199.994      63.610    -243.188
  O      200.261      62.888    -244.384
  O      202.590      63.013    -243.412
  O      202.017      61.037    -244.957
  H      203.357      62.438    -243.236
  H      198.944      63.803    -243.115
  H      200.527      64.538    -243.205
  H      200.310      63.032    -242.345

 6  7  8  9  10  11  12  13  14  15  16  26  30  31  32  33  35 0
 6-311+G(2d,p)
 ****
 37  38 0
 6-311+G(2d,p)
 ****
 1  2  3  4  5  17  18  19  20  21  22  23  24  25 0
 3-21G
 ****
 27  28  29  34  36  39  40  41  42  43  44  45  46 0
 3-21G
 ****


