%nproc=1
%NoSave
%Mem=1900MB
#P OB98/GEN NMR

erre ene a

0 1
  C     -523.261     369.555      66.345
  O     -523.057     370.333      65.155
  P     -522.094     369.878      63.954
  C     -523.795     369.005      62.214
  O     -522.899     370.045      62.576
  C     -523.410     368.411      60.850
  O     -524.164     367.196      60.604
  C     -523.719     369.287      59.650
  O     -522.827     370.379      59.533
  C     -523.624     368.276      58.508
  O     -522.266     368.102      58.075
  C     -524.138     366.982      59.174
  N     -525.441     366.568      58.683
  C     -525.454     365.802      57.515
  O     -524.414     365.574      56.906
  N     -526.666     365.326      57.060
  C     -527.761     365.673      57.656
  N     -528.926     365.160      57.165
  C     -527.799     366.593      58.804
  C     -526.617     366.997      59.263
  O     -521.498     368.520      64.139
  O     -520.956     371.002      63.877
  H     -520.143     370.619      63.496
  H     -521.782     367.708      58.829
  H     -528.743     366.892      59.244
  H     -526.550     367.662      60.118
  H     -523.422     366.167      59.019
  H     -524.203     368.583      57.629
  H     -524.749     369.656      59.726
  H     -522.341     368.159      60.877
  H     -528.862     364.522      56.383
  H     -524.805     369.422      62.142
  H     -529.829     365.348      57.572
  H     -523.790     368.233      62.991
  P     -523.468     371.847      59.521
  C     -523.525     372.804      61.931
  O     -522.809     372.680      60.720
  O     -524.976     371.604      60.002
  O     -523.429     372.528      58.191
  H     -525.580     372.186      59.500
  H     -522.814     372.940      62.749
  H     -524.136     371.915      62.135
  H     -524.174     373.685      61.882
  H     -523.942     370.066      66.993
  H     -522.326     369.419      66.847
  H     -523.667     368.600      66.082

 3  4  5  6  7  8  9  10  11  12  13  24  27  28  29  30  32 0
 6-311+G(2d,p)
 ****
 34  35 0
 6-311+G(2d,p)
 ****
 1  2  14  15  16  17  18  19  20  21  22  23  25  26 0
 3-21G
 ****
 31  33  36  37  38  39  40  41  42  43  44  45  46 0
 3-21G
 ****


