%nproc=1
%NoSave
%Mem=1900MB
#P OB98/GEN NMR

erre ene a

0 1
  C     -223.797    -224.318    -321.493
  O     -224.931    -223.629    -322.044
  P     -225.677    -224.081    -323.390
  C     -225.588    -223.493    -325.902
  O     -225.310    -223.060    -324.572
  C     -225.335    -222.386    -326.928
  O     -226.241    -221.257    -326.685
  C     -223.897    -221.819    -326.927
  O     -223.553    -221.576    -328.288
  C     -224.071    -220.524    -326.143
  O     -223.014    -219.600    -326.334
  C     -225.424    -220.066    -326.696
  N     -226.069    -218.990    -325.949
  C     -226.781    -218.030    -326.681
  O     -226.811    -218.049    -327.901
  N     -227.439    -217.033    -325.989
  C     -227.377    -217.000    -324.692
  N     -228.057    -215.987    -324.074
  C     -226.635    -217.976    -323.886
  C     -226.013    -218.934    -324.570
  O     -227.144    -224.294    -323.220
  O     -224.955    -225.448    -323.832
  H     -225.630    -226.047    -324.225
  H     -222.192    -220.018    -326.000
  H     -226.627    -217.915    -322.807
  H     -225.464    -219.716    -324.050
  H     -225.308    -219.765    -327.745
  H     -224.120    -220.761    -325.075
  H     -223.167    -222.513    -326.497
  H     -225.587    -222.773    -327.917
  H     -228.574    -215.339    -324.661
  H     -226.645    -223.794    -325.953
  H     -228.094    -215.871    -323.071
  H     -224.973    -224.375    -326.126
  P     -222.012    -221.527    -328.724
  C     -220.225    -219.660    -329.079
  O     -221.526    -219.998    -328.651
  O     -222.105    -221.764    -330.314
  O     -221.114    -222.551    -328.108
  H     -221.277    -222.150    -330.630
  H     -220.276    -218.754    -329.689
  H     -219.760    -220.456    -329.672
  H     -219.600    -219.457    -328.197
  H     -223.482    -223.826    -320.597
  H     -222.997    -224.313    -322.203
  H     -224.068    -225.328    -321.269

 3  4  5  6  7  8  9  10  11  12  13  24  27  28  29  30  32 0
 6-311+G(2d,p)
 ****
 34  35 0
 6-311+G(2d,p)
 ****
 1  2  14  15  16  17  18  19  20  21  22  23  25  26 0
 3-21G
 ****
 31  33  36  37  38  39  40  41  42  43  44  45  46 0
 3-21G
 ****


