%nproc=1
%NoSave
%Mem=1900MB
#P OB98/GEN NMR

erre ene a

0 1
  C      569.915     262.209     -23.086
  O      568.971     261.441     -22.366
  H      570.153     263.105     -22.505
  H      569.512     262.516     -24.058
  H      570.835     261.632     -23.230
  P      568.251     260.221     -23.124
  C      565.943     261.055     -22.330
  O      566.763     260.739     -23.453
  C      564.798     261.986     -22.726
  O      563.755     261.971     -21.724
  C      565.196     263.453     -22.844
  O      566.085     263.737     -23.900
  C      563.849     264.148     -22.790
  O      563.194     264.171     -24.059
  C      563.071     263.241     -21.807
  N      562.922     263.851     -20.491
  C      561.625     264.229     -20.139
  O      560.654     264.097     -20.877
  N      561.486     264.806     -18.907
  C      562.501     265.078     -18.028
  O      562.312     265.616     -16.946
  C      563.851     264.688     -18.470
  C      563.993     264.099     -19.659
  O      568.289     258.899     -22.414
  O      568.952     260.199     -24.563
  H      562.236     264.223     -23.881
  H      568.772     259.349     -25.035
  H      560.555     265.075     -18.625
  H      564.674     264.897     -17.808
  H      564.983     263.800     -20.009
  H      562.068     263.029     -22.197
  H      563.936     265.183     -22.457
  H      565.728     263.734     -21.923
  H      564.368     261.618     -23.662
  H      566.573     261.552     -21.586
  H      565.549     260.131     -21.898
  P      566.960     265.071     -23.991
  C      565.818     265.892     -26.204
  O      566.136     266.160     -24.840
  O      568.413     264.898     -24.290
  O      566.831     265.647     -22.491
  H      567.679     266.089     -22.282
  H      565.272     266.717     -26.612
  H      565.222     265.005     -26.264
  H      566.721     265.753     -26.760

 6  7  8  9  10  11  12  13  14  15  16  26  31  32  33  34  35 0
 6-311+G(2d,p)
 ****
 36  37 0
 6-311+G(2d,p)
 ****
 1  2  3  4  5  17  18  19  20  21  22  23  24  25 0
 3-21G
 ****
 27  28  29  30  38  39  40  41  42  43  44  45 0
 3-21G
 ****


