%nproc=1
%NoSave
%Mem=1900MB
#P OB98/GEN NMR

erre ene a

0 1
  C     -215.628    -432.090    -461.790
  O     -215.625    -431.582    -463.112
  H     -216.339    -432.921    -461.732
  H     -215.935    -431.313    -461.087
  H     -214.631    -432.459    -461.523
  P     -214.714    -430.284    -463.371
  C     -212.762    -431.850    -464.116
  O     -213.214    -430.840    -463.224
  C     -211.505    -431.373    -464.839
  O     -210.477    -431.016    -463.891
  C     -210.871    -432.425    -465.748
  O     -211.549    -432.557    -466.994
  C     -209.485    -431.839    -465.919
  O     -209.530    -430.736    -466.844
  C     -209.186    -431.348    -464.474
  N     -208.484    -432.346    -463.665
  C     -207.102    -432.179    -463.518
  O     -206.521    -431.240    -464.071
  N     -206.401    -433.106    -462.784
  C     -207.026    -434.096    -462.232
  N     -206.276    -434.994    -461.526
  C     -208.479    -434.301    -462.344
  C     -209.136    -433.400    -463.062
  O     -214.895    -429.420    -462.034
  O     -214.989    -429.531    -464.634
  H     -208.609    -430.540    -467.093
  H     -214.273    -428.652    -462.044
  H     -208.952    -435.155    -461.871
  H     -210.212    -433.491    -463.193
  H     -208.587    -430.426    -464.497
  H     -208.756    -432.555    -466.313
  H     -210.785    -433.391    -465.247
  H     -211.761    -430.462    -465.402
  H     -205.268    -434.862    -461.513
  H     -213.562    -432.057    -464.837
  H     -206.641    -435.887    -461.212
  H     -212.540    -432.767    -463.563
  P     -211.325    -433.918    -467.819
  C     -212.890    -435.410    -466.362
  O     -211.561    -435.132    -466.786
  O     -209.748    -433.940    -468.066
  O     -212.099    -434.013    -469.103
  H     -209.531    -434.286    -468.952
  H     -212.882    -436.237    -465.683
  H     -213.492    -435.652    -467.212
  H     -213.295    -434.550    -465.871

 6  7  8  9  10  11  12  13  14  15  16  26  30  31  32  33  35 0
 6-311+G(2d,p)
 ****
 37  38 0
 6-311+G(2d,p)
 ****
 1  2  3  4  5  17  18  19  20  21  22  23  24  25 0
 3-21G
 ****
 27  28  29  34  36  39  40  41  42  43  44  45  46 0
 3-21G
 ****


