%nproc=1
%NoSave
%Mem=1900MB
#P OB98/GEN NMR

erre ene a

0 1
  C      651.750    -899.135    -106.657
  O      651.319    -898.295    -107.715
  P      649.810    -897.725    -107.644
  C      650.712    -895.415    -106.821
  O      649.858    -896.515    -106.578
  C      649.896    -894.175    -107.176
  O      648.932    -893.895    -106.138
  C      650.719    -892.915    -107.350
  O      651.301    -892.855    -108.640
  C      649.673    -891.831    -107.113
  O      648.882    -891.608    -108.296
  C      648.823    -892.455    -105.997
  N      647.606    -889.582    -102.017
  C      647.058    -889.614    -103.292
  N      646.021    -888.785    -103.522
  N      647.509    -890.393    -104.249
  C      648.569    -891.134    -103.871
  C      649.212    -891.178    -102.648
  C      648.675    -890.376    -101.587
  O      649.048    -890.378    -100.427
  N      650.239    -892.075    -102.654
  C      650.235    -892.575    -103.875
  N      649.217    -892.055    -104.656
  O      649.038    -898.895    -106.852
  O      649.189    -897.395    -108.953
  H      648.367    -890.787    -108.186
  H      648.558    -899.465    -107.486
  H      647.217    -888.981    -101.307
  H      650.922    -893.315    -104.263
  H      647.763    -892.195    -106.095
  H      650.117    -890.865    -106.859
  H      645.647    -888.151    -102.837
  H      651.485    -892.845    -106.574
  H      645.618    -888.809    -104.448
  H      649.328    -894.395    -108.090
  H      651.398    -895.655    -107.657
  H      651.316    -895.235    -105.927
  P      652.650    -892.015    -108.831
  C      654.551    -893.785    -108.637
  O      653.809    -892.745    -108.006
  O      652.362    -890.692    -107.966
  O      652.987    -891.698    -110.260
  H      652.777    -889.920    -108.433
  H      655.550    -893.805    -108.198
  H      654.627    -893.605    -109.720
  H      654.071    -894.745    -108.459
  H      652.761    -899.437    -106.831
  H      651.122    -900.000    -106.610
  H      651.692    -898.601    -105.731

 3  4  5  6  7  8  9  10  11  12  23  26  30  31 0
 6-311+G(2d,p)
 ****
 33  35  36  37  38 0
 6-311+G(2d,p)
 ****
 1  2  13  14  15  16  17  18  19  20  21  22  24  25 0
 3-21G
 ****
 27  28  29  32  34  39  40  41  42  43  44  45  46  47  48  49 0
 3-21G
 ****


