%nproc=1
%NoSave
%Mem=1900MB
#P OB98/GEN NMR

erre ene a

0 1
  C       27.427    -261.610    -203.439
  O       26.027    -261.882    -203.589
  P       25.545    -263.407    -203.511
  C       25.306    -264.973    -201.447
  O       25.045    -263.697    -202.013
  C       24.050    -265.509    -200.748
  O       23.586    -264.608    -199.718
  C       22.868    -265.712    -201.685
  O       22.946    -266.955    -202.372
  C       21.711    -265.742    -200.695
  O       21.624    -267.047    -200.085
  C       22.139    -264.690    -199.664
  N       17.951    -261.872    -199.323
  C       18.175    -263.180    -198.942
  N       17.132    -263.834    -198.383
  N       19.320    -263.795    -199.096
  C       20.274    -263.015    -199.653
  C       20.176    -261.705    -200.073
  C       18.899    -261.041    -199.907
  O       18.636    -259.886    -200.238
  N       21.358    -261.253    -200.593
  C       22.182    -262.278    -200.475
  N       21.570    -263.376    -199.925
  O       26.925    -264.222    -203.588
  O       24.604    -263.811    -204.600
  H       21.032    -266.955    -199.313
  H       26.769    -265.100    -203.979
  H       17.045    -261.448    -199.185
  H       23.226    -262.270    -200.766
  H       21.858    -264.968    -198.641
  H       20.747    -265.554    -201.178
  H       16.241    -263.408    -198.186
  H       22.756    -264.863    -202.373
  H       17.290    -264.784    -198.070
  H       24.306    -266.470    -200.280
  H       26.128    -264.912    -200.730
  H       25.645    -265.650    -202.236
  P       23.324    -266.926    -203.934
  C       25.601    -266.690    -205.159
  O       24.910    -267.140    -204.012
  O       23.122    -265.384    -204.317
  O       22.496    -267.821    -204.791
  H       22.834    -265.305    -205.249
  H       26.678    -266.769    -204.970
  H       25.359    -265.647    -205.379
  H       25.350    -267.316    -206.022
  H       27.596    -260.556    -203.513
  H       27.973    -262.114    -204.209
  H       27.757    -261.957    -202.482

 3  4  5  6  7  8  9  10  11  12  23  26  30  31 0
 6-311+G(2d,p)
 ****
 33  35  36  37  38 0
 6-311+G(2d,p)
 ****
 1  2  13  14  15  16  17  18  19  20  21  22  24  25 0
 3-21G
 ****
 27  28  29  32  34  39  40  41  42  43  44  45  46  47  48  49 0
 3-21G
 ****


