%nproc=1
%NoSave
%Mem=1900MB
#P OB98/GEN NMR

erre ene a

0 1
  C     -136.347      14.096     420.228
  O     -137.103      14.982     421.034
  P     -137.586      16.406     420.478
  C     -135.946      17.576     422.079
  O     -136.341      17.390     420.725
  C     -134.425      17.588     422.181
  O     -133.921      16.317     421.706
  C     -133.704      18.645     421.345
  O     -133.618      19.923     421.950
  C     -132.312      18.036     421.251
  O     -131.593      18.278     422.475
  C     -132.622      16.541     421.107
  N     -129.773      14.942     417.166
  C     -129.457      15.265     418.439
  N     -130.270      15.701     419.426
  C     -131.542      15.750     419.000
  C     -132.017      15.454     417.732
  C     -131.070      15.027     416.788
  N     -131.400      14.679     415.495
  N     -133.388      15.643     417.668
  C     -133.726      16.040     418.877
  N     -132.648      16.114     419.720
  O     -138.894      16.870     421.016
  O     -137.595      16.224     418.892
  H     -131.716      19.223     422.694
  H     -138.119      16.941     418.475
  H     -128.406      15.161     418.707
  H     -134.724      16.287     419.182
  H     -131.901      15.907     421.643
  H     -131.715      18.457     420.439
  H     -134.135      18.710     420.334
  H     -134.151      17.684     423.244
  H     -136.338      16.740     422.672
  H     -130.678      14.263     414.927
  H     -132.379      14.586     415.262
  H     -136.376      18.504     422.467
  P     -134.515      21.100     421.317
  C     -132.310      22.359     420.686
  O     -133.564      21.855     420.273
  O     -135.191      21.972     422.322
  O     -135.538      20.300     420.371
  H     -135.132      19.864     419.606
  H     -131.752      22.687     419.801
  H     -131.728      21.588     421.193
  H     -132.449      23.217     421.348
  H     -136.128      13.208     420.783
  H     -135.433      14.570     419.938
  H     -136.909      13.841     419.354

 3  4  5  6  7  8  9  10  11  12  22  25  29  30  31  32 0
 6-311+G(2d,p)
 ****
 33  36  37 0
 6-311+G(2d,p)
 ****
 1  2  13  14  15  16  17  18  19  20  21  23  24  26 0
 3-21G
 ****
 27  28  34  35  38  39  40  41  42  43  44  45  46  47  48 0
 3-21G
 ****


