%nproc=1
%NoSave
%Mem=1900MB
#P OB98/GEN NMR

erre ene a

0 1
  C       95.602     156.747     -88.190
  O       94.467     156.093     -88.723
  H       96.501     156.277     -88.600
  H       95.626     156.652     -87.101
  H       95.600     157.803     -88.471
  P       93.017     156.544     -88.215
  C       91.571     158.674     -88.480
  O       92.868     158.095     -88.592
  C       91.635     160.184     -88.707
  O       92.360     160.820     -87.637
  C       92.350     160.591     -89.992
  O       91.526     160.357     -91.116
  C       92.649     162.049     -89.692
  O       91.482     162.866     -89.883
  C       93.028     161.980     -88.192
  N       94.466     161.911     -87.955
  C       95.136     163.139     -87.887
  O       94.518     164.193     -88.038
  N       96.493     163.131     -87.669
  C       97.118     162.010     -87.489
  N       98.458     162.072     -87.271
  C       96.441     160.699     -87.518
  C       95.133     160.721     -87.764
  O       92.686     156.219     -86.790
  O       92.010     155.827     -89.232
  H       90.882     162.660     -89.139
  H       91.710     154.973     -88.871
  H       97.000     159.787     -87.354
  H       94.561     159.799     -87.802
  H       92.636     162.855     -87.658
  H       93.430     162.453     -90.338
  H       93.300     160.055     -90.082
  H       90.609     160.572     -88.689
  H       98.875     162.998     -87.240
  H       91.209     158.461     -87.468
  H       99.012     161.287     -86.961
  H       90.880     158.215     -89.197
  P       92.146     160.035     -92.560
  C       93.715     158.206     -93.459
  O       93.267     158.909     -92.311
  O       92.609     161.224     -93.331
  O       90.985     159.211     -93.292
  H       90.273     159.823     -93.606
  H       94.455     157.488     -93.172
  H       94.141     158.897     -94.157
  H       92.888     157.703     -93.915

 6  7  8  9  10  11  12  13  14  15  16  26  30  31  32  33  35 0
 6-311+G(2d,p)
 ****
 37  38 0
 6-311+G(2d,p)
 ****
 1  2  3  4  5  17  18  19  20  21  22  23  24  25 0
 3-21G
 ****
 27  28  29  34  36  39  40  41  42  43  44  45  46 0
 3-21G
 ****


