%nproc=1
%NoSave
%Mem=1900MB
#P OB98/GEN NMR

erre ene a

0 1
  C     -773.968     -99.981     229.885
  O     -772.934    -100.941     229.990
  H     -774.938    -100.478     229.808
  H     -773.959     -99.355     230.786
  H     -773.801     -99.341     229.013
  P     -772.760    -101.942     228.747
  C     -770.627    -103.066     229.716
  O     -771.974    -103.227     229.313
  C     -769.935    -104.421     229.812
  O     -770.395    -105.132     230.976
  C     -770.205    -105.358     228.632
  O     -769.391    -105.039     227.513
  C     -769.815    -106.695     229.242
  O     -768.382    -106.839     229.234
  C     -770.316    -106.556     230.684
  N     -773.086    -110.855     230.335
  C     -771.774    -110.597     230.123
  N     -771.110    -109.437     230.259
  C     -771.928    -108.463     230.684
  C     -773.288    -108.566     230.963
  C     -773.867    -109.832     230.776
  N     -775.237    -110.058     230.928
  N     -773.801    -107.342     231.356
  C     -772.783    -106.516     231.291
  N     -771.633    -107.144     230.892
  O     -771.660    -101.193     227.841
  O     -774.006    -102.230     227.980
  H     -768.127    -107.037     228.310
  H     -772.113    -100.695     227.138
  H     -771.183    -111.452     229.795
  H     -772.832    -105.457     231.519
  H     -769.633    -106.999     231.415
  H     -770.228    -107.553     228.695
  H     -771.274    -105.377     228.373
  H     -768.854    -104.248     229.931
  H     -770.590    -102.575     230.699
  H     -775.587    -110.802     230.341
  H     -775.797    -109.211     230.993
  H     -770.115    -102.429     228.985
  P     -769.926    -105.461     226.059
  C     -768.721    -103.420     225.010
  O     -768.904    -104.839     224.992
  O     -771.245    -104.564     225.889
  O     -770.240    -106.911     225.886
  H     -772.019    -105.139     225.699
  H     -768.018    -103.141     224.253
  H     -768.350    -103.120     225.968
  H     -769.657    -102.937     224.823

 6  7  8  9  10  11  12  13  14  15  25  28  32  33  34  35 0
 6-311+G(2d,p)
 ****
 36  39  40 0
 6-311+G(2d,p)
 ****
 1  2  3  4  5  16  17  18  19  20  21  22  23  24 0
 3-21G
 ****
 26  27  29  30  31  37  38  41  42  43  44  45  46  47  48 0
 3-21G
 ****


