%nproc=1
%NoSave
%Mem=1900MB
#P OB98/GEN NMR

erre ene a

0 1
  C     -389.140    -768.026     624.000
  O     -389.140    -767.049     625.022
  H     -388.998    -767.523     623.040
  H     -390.096    -768.552     623.987
  H     -388.322    -768.735     624.150
  P     -389.335    -767.578     626.524
  C     -391.900    -767.938     626.355
  O     -390.627    -768.545     626.494
  C     -392.998    -768.890     626.835
  O     -392.750    -769.239     628.226
  C     -394.412    -768.309     626.755
  O     -395.328    -769.338     626.363
  C     -394.713    -767.909     628.192
  O     -396.101    -767.825     628.455
  C     -393.982    -769.021     628.939
  N     -396.274    -767.758     633.248
  C     -396.802    -768.114     632.021
  N     -398.144    -768.125     631.914
  N     -396.074    -768.422     630.975
  C     -394.738    -768.391     631.231
  C     -394.092    -768.050     632.394
  C     -394.906    -767.690     633.540
  O     -394.507    -767.361     634.643
  N     -392.722    -768.112     632.234
  C     -392.543    -768.482     630.977
  N     -393.746    -768.659     630.328
  O     -389.870    -766.283     627.308
  O     -388.127    -768.167     627.163
  H     -396.508    -767.252     627.771
  H     -389.591    -766.305     628.244
  H     -396.880    -767.524     634.006
  H     -391.595    -768.630     630.489
  H     -394.545    -769.959     628.958
  H     -394.263    -766.934     628.408
  H     -398.780    -767.933     632.686
  H     -394.494    -767.464     626.059
  H     -398.553    -768.388     631.019
  H     -392.917    -769.823     626.262
  H     -392.067    -767.687     625.307
  H     -391.938    -767.016     626.954
  P     -395.429    -769.688     624.805
  C     -397.322    -768.010     624.218
  O     -395.977    -768.393     624.016
  O     -396.666    -770.716     624.746
  O     -394.190    -770.311     624.237
  H     -396.350    -771.613     624.573
  H     -397.537    -767.141     623.632
  H     -397.479    -767.790     625.253
  H     -397.969    -768.809     623.921

 6  7  8  9  10  11  12  13  14  15  26  29  33  34 0
 6-311+G(2d,p)
 ****
 36  38  39  40  41 0
 6-311+G(2d,p)
 ****
 1  2  3  4  5  16  17  18  19  20  21  22  23  24  25 0
 3-21G
 ****
 27  28  30  31  32  35  37  42  43  44  45  46  47 0
 3-21G
 ****
 48  49 0
 3-21G
 ****


