%nproc=1
%NoSave
%Mem=1900MB
#P OB98/GEN NMR

erre ene a

0 1
  C       64.111     125.150    -109.037
  O       63.871     124.045    -108.189
  H       64.317     124.802    -110.052
  H       63.218     125.781    -109.053
  H       64.954     125.743    -108.667
  P       65.118     123.083    -107.885
  C       64.482     121.459    -109.812
  O       65.452     122.347    -109.274
  C       65.164     120.243    -110.442
  O       65.742     120.640    -111.715
  C       66.290     119.660    -109.582
  O       66.260     118.234    -109.685
  C       67.551     120.199    -110.236
  O       68.685     119.378    -109.982
  C       67.131     120.257    -111.701
  N       71.525     120.926    -114.218
  C       70.962     119.834    -113.658
  N       69.781     119.739    -113.011
  C       69.144     120.924    -113.013
  C       69.593     122.122    -113.540
  C       70.853     122.101    -114.160
  N       71.452     123.218    -114.699
  N       68.670     123.127    -113.311
  C       67.684     122.540    -112.660
  N       67.928     121.212    -112.452
  O       64.450     121.926    -106.996
  O       66.277     123.720    -107.194
  H       69.486     119.864    -110.268
  H       64.350     122.240    -106.077
  H       71.538     118.914    -113.737
  H       66.784     123.030    -112.311
  H       67.229     119.285    -112.205
  H       67.764     121.204    -109.852
  H       66.215     119.949    -108.532
  H       64.401     119.488    -110.662
  H       63.900     121.987    -110.573
  H       72.382     123.122    -115.074
  H       70.993     124.113    -114.612
  H       63.809     121.130    -109.011
  P       65.942     117.419    -108.340
  C       68.345     116.444    -108.289
  O       67.326     117.132    -107.576
  O       65.499     115.977    -108.877
  O       64.872     118.040    -107.501
  H       64.661     115.708    -108.456
  H       69.202     116.325    -107.660
  H       68.616     117.008    -109.157
  H       67.984     115.482    -108.587

 6  7  8  9  10  11  12  13  14  15  25  28  32  33  34  35 0
 6-311+G(2d,p)
 ****
 36  39  40 0
 6-311+G(2d,p)
 ****
 1  2  3  4  5  16  17  18  19  20  21  22  23  24 0
 3-21G
 ****
 26  27  29  30  31  37  38  41  42  43  44  45  46  47 0
 3-21G
 ****
 48 0
 3-21G
 ****


