%nproc=1
%NoSave
%Mem=1900MB
#P OB98/GEN NMR

erre ene a

0 1
  C     -347.101     191.749     358.266
  O     -345.837     191.161     358.516
  P     -345.204     190.109     357.485
  C     -346.464     188.203     358.660
  O     -346.213     188.864     357.425
  C     -347.298     186.939     358.437
  O     -347.187     186.092     359.603
  C     -348.780     187.226     358.217
  O     -349.296     186.291     357.267
  C     -349.420     186.938     359.565
  O     -350.801     186.571     359.420
  C     -348.509     185.827     360.100
  N     -349.950     183.297     364.332
  C     -350.141     183.031     363.018
  N     -349.753     183.760     361.950
  C     -349.056     184.839     362.342
  C     -348.782     185.240     363.643
  C     -349.267     184.415     364.672
  N     -349.065     184.678     366.011
  N     -348.065     186.425     363.651
  C     -347.897     186.718     362.382
  N     -348.467     185.789     361.552
  O     -343.784     189.746     357.744
  O     -345.392     190.794     356.053
  H     -350.824     185.739     358.898
  H     -344.613     190.619     355.488
  H     -350.679     182.116     362.798
  H     -347.382     187.593     362.009
  H     -348.823     184.840     359.737
  H     -349.372     187.835     360.194
  H     -348.974     188.250     357.879
  H     -346.879     186.390     357.585
  H     -347.017     188.883     359.313
  H     -349.341     183.967     366.668
  H     -348.406     185.408     366.257
  H     -345.513     187.955     359.142
  P     -349.771     186.906     355.855
  C     -351.708     187.913     357.275
  O     -350.762     188.102     356.245
  O     -350.295     185.855     354.935
  O     -348.422     187.619     355.362
  H     -347.842     187.851     356.121
  H     -352.312     188.822     357.366
  H     -351.199     187.738     358.225
  H     -352.362     187.073     357.046
  H     -347.347     192.418     359.064
  H     -347.845     190.982     358.201
  H     -347.066     192.291     357.344

 3  4  5  6  7  8  9  10  11  12  22  25  29  30  31  32 0
 6-311+G(2d,p)
 ****
 33  36  37 0
 6-311+G(2d,p)
 ****
 1  2  13  14  15  16  17  18  19  20  21  23  24  26 0
 3-21G
 ****
 27  28  34  35  38  39  40  41  42  43  44  45  46  47  48 0
 3-21G
 ****


