%nproc=1
%NoSave
%Mem=1900MB
#P OB98/GEN NMR

erre ene a

0 1
  C      663.443     325.830    -792.765
  O      663.437     325.258    -791.478
  H      663.140     326.878    -792.686
  H      662.727     325.300    -793.408
  H      664.442     325.786    -793.218
  P      664.179     323.855    -791.254
  C      661.870     322.721    -791.019
  O      663.155     322.900    -790.458
  C      660.767     322.938    -789.975
  O      661.018     322.078    -788.837
  C      660.796     324.382    -789.465
  O      659.510     324.826    -789.031
  C      661.713     324.299    -788.251
  O      661.529     325.370    -787.327
  C      661.350     322.914    -787.709
  N      663.903     322.788    -783.297
  C      662.948     323.677    -783.727
  N      662.645     324.684    -782.874
  N      662.348     323.608    -784.886
  C      662.814     322.595    -785.664
  C      663.770     321.660    -785.365
  C      664.398     321.732    -784.061
  O      665.272     320.975    -783.634
  N      663.989     320.803    -786.411
  C      663.159     321.215    -787.346
  N      662.410     322.296    -786.941
  O      665.288     324.182    -790.138
  O      664.795     323.241    -792.475
  H      662.086     325.187    -786.562
  H      666.023     323.549    -790.197
  H      664.315     322.875    -782.389
  H      663.050     320.773    -788.329
  H      660.470     322.983    -787.055
  H      662.750     324.357    -788.612
  H      663.201     324.890    -782.048
  H      661.183     325.075    -790.213
  H      662.168     325.500    -783.276
  H      659.792     322.648    -790.378
  H      661.824     321.698    -791.412
  H      661.730     323.401    -791.870
  P      658.908     326.145    -789.731
  C      658.517     327.298    -787.413
  O      657.985     326.878    -788.658
  O      657.875     325.554    -790.808
  O      659.941     327.015    -790.368
  H      658.253     325.638    -791.709
  H      657.747     327.766    -786.836
  H      659.310     327.996    -787.581
  H      658.895     326.449    -786.882

 6  7  8  9  10  11  12  13  14  15  26  29  33  34 0
 6-311+G(2d,p)
 ****
 36  38  39  40  41 0
 6-311+G(2d,p)
 ****
 1  2  3  4  5  16  17  18  19  20  21  22  23  24  25 0
 3-21G
 ****
 27  28  30  31  32  35  37  42  43  44  45  46  47 0
 3-21G
 ****
 48  49 0
 3-21G
 ****


