%nproc=1
%NoSave
%Mem=1900MB
#P OB98/GEN NMR

erre ene a

0 1
  C      168.885     -39.136       6.395
  O      169.642     -37.972       6.638
  H      167.824     -38.866       6.403
  H      169.057     -39.881       7.175
  H      169.133     -39.555       5.416
  P      171.227     -38.105       6.872
  C      171.183     -37.589       9.384
  O      171.378     -38.598       8.402
  C      172.377     -37.499      10.339
  O      172.719     -38.827      10.818
  C      173.634     -36.897       9.702
  O      174.195     -35.921      10.587
  C      174.575     -38.086       9.566
  O      175.944     -37.690       9.519
  C      174.157     -38.932      10.775
  N      174.595     -40.321      10.677
  C      175.683     -40.691      11.475
  O      176.246     -39.853      12.182
  N      176.135     -41.985      11.424
  C      175.582     -42.827      10.607
  N      176.081     -44.093      10.597
  C      174.461     -42.472       9.713
  C      174.016     -41.216       9.807
  O      172.016     -36.888       6.524
  O      171.649     -39.405       6.035
  H      176.059     -37.063       8.768
  H      172.623     -39.382       5.862
  H      174.040     -43.205       9.043
  H      173.191     -40.866       9.194
  H      174.558     -38.508      11.705
  H      174.347     -38.626       8.638
  H      173.447     -36.424       8.742
  H      172.066     -36.928      11.225
  H      176.850     -44.298      11.226
  H      170.265     -37.814       9.941
  H      175.736     -44.831       9.999
  H      171.067     -36.627       8.871
  P      173.665     -34.415      10.402
  C      174.398     -34.592       7.921
  O      173.394     -34.174       8.838
  O      174.966     -33.533      10.708
  O      172.530     -34.063      11.307
  H      174.925     -33.178      11.616
  H      174.084     -34.370       6.923
  H      174.555     -35.646       8.020
  H      175.311     -34.074       8.131

 6  7  8  9  10  11  12  13  14  15  16  26  30  31  32  33  35 0
 6-311+G(2d,p)
 ****
 37  38 0
 6-311+G(2d,p)
 ****
 1  2  3  4  5  17  18  19  20  21  22  23  24  25 0
 3-21G
 ****
 27  28  29  34  36  39  40  41  42  43  44  45  46 0
 3-21G
 ****


