%nproc=1
%NoSave
%Mem=1900MB
#P OB98/GEN NMR

erre ene a

0 1
  C       32.405    -169.227      86.938
  O       33.460    -168.635      86.196
  P       34.058    -167.240      86.711
  C       36.392    -168.090      87.462
  O       35.134    -167.552      87.858
  C       37.428    -167.911      88.578
  O       37.658    -166.491      88.806
  C       37.006    -168.523      89.916
  O       38.164    -169.019      90.604
  C       36.490    -167.337      90.698
  O       36.540    -167.572      92.107
  C       37.434    -166.232      90.210
  N       37.319    -162.210      93.265
  C       38.200    -163.280      93.252
  N       39.120    -163.315      94.234
  N       38.187    -164.217      92.338
  C       37.205    -164.055      91.418
  C       36.280    -163.035      91.320
  C       36.302    -162.006      92.340
  O       35.542    -161.052      92.428
  N       35.472    -163.189      90.228
  C       35.863    -164.328      89.684
  N       36.890    -164.906      90.389
  O       32.828    -166.603      87.516
  O       34.519    -166.325      85.626
  H       35.912    -168.301      92.290
  H       32.428    -165.883      86.996
  H       37.368    -161.520      93.996
  H       35.432    -164.784      88.806
  H       38.403    -166.275      90.713
  H       35.443    -167.126      90.427
  H       39.143    -162.657      95.003
  H       36.258    -169.326      89.835
  H       39.746    -164.109      94.269
  H       38.381    -168.340      88.237
  H       36.738    -167.564      86.563
  H       36.285    -169.148      87.219
  P       38.043    -170.504      91.196
  C       38.841    -172.008      89.230
  O       37.752    -171.458      89.947
  O       36.645    -170.478      91.986
  O       39.188    -170.907      92.073
  H       36.650    -171.141      92.697
  H       38.807    -173.103      89.320
  H       39.807    -171.653      89.597
  H       38.741    -171.741      88.176
  H       32.115    -170.146      86.474
  H       31.568    -168.560      86.963
  H       32.736    -169.421      87.937

 3  4  5  6  7  8  9  10  11  12  23  26  30  31 0
 6-311+G(2d,p)
 ****
 33  35  36  37  38 0
 6-311+G(2d,p)
 ****
 1  2  13  14  15  16  17  18  19  20  21  22  24  25 0
 3-21G
 ****
 27  28  29  32  34  39  40  41  42  43  44  45  46  47  48  49 0
 3-21G
 ****


