%nproc=1
%NoSave
%Mem=1900MB
#P OB98/GEN NMR

erre ene a

0 1
  C     -116.858     887.555      21.820
  O     -117.189     886.784      20.682
  H     -116.577     888.571      21.523
  H     -117.732     887.607      22.471
  H     -116.032     887.085      22.368
  P     -116.062     886.678      19.546
  C     -117.556     887.401      17.552
  O     -116.833     886.351      18.172
  C     -117.916     887.024      16.122
  O     -116.722     886.846      15.329
  C     -118.685     885.713      15.979
  O     -120.065     885.868      16.292
  C     -118.473     885.418      14.504
  O     -119.402     886.190      13.708
  C     -117.044     885.909      14.266
  N     -114.787     882.229      11.479
  C     -115.758     883.131      11.173
  N     -116.319     884.062      11.965
  C     -115.762     884.045      13.185
  C     -114.764     883.199      13.643
  C     -114.278     882.246      12.732
  N     -113.296     881.330      13.048
  N     -114.438     883.477      14.956
  C     -115.220     884.484      15.289
  N     -116.048     884.856      14.258
  O     -115.313     885.303      19.884
  O     -115.106     887.824      19.484
  H     -119.262     885.919      12.776
  H     -114.362     885.399      19.679
  H     -116.135     883.077      10.148
  H     -115.229     884.970      16.256
  H     -116.957     886.466      13.323
  H     -118.630     884.363      14.245
  H     -118.219     884.914      16.586
  H     -118.492     887.851      15.684
  H     -116.948     888.310      17.536
  H     -112.856     880.818      12.307
  H     -112.914     881.352      13.994
  H     -118.461     887.599      18.135
  P     -120.746     884.739      17.213
  C     -122.677     885.346      15.578
  O     -122.307     884.751      16.822
  O     -120.722     885.394      18.666
  O     -120.073     883.406      17.192
  H     -120.736     884.696      19.351
  H     -123.738     885.282      15.453
  H     -122.192     884.829      14.777
  H     -122.379     886.374      15.571

 6  7  8  9  10  11  12  13  14  15  25  28  32  33  34  35 0
 6-311+G(2d,p)
 ****
 36  39  40 0
 6-311+G(2d,p)
 ****
 1  2  3  4  5  16  17  18  19  20  21  22  23  24 0
 3-21G
 ****
 26  27  29  30  31  37  38  41  42  43  44  45  46  47  48 0
 3-21G
 ****


