%nproc=1
%NoSave
%Mem=1900MB
#P OB98/GEN NMR

erre ene a

0 1
  C       11.552    -210.580    -163.312
  O       11.841    -211.247    -164.556
  P       12.216    -212.809    -164.535
  C       10.065    -214.285    -164.527
  O       11.091    -213.669    -165.290
  C        8.931    -214.801    -165.429
  O        7.985    -213.726    -165.705
  C        9.398    -215.346    -166.786
  O        8.499    -216.407    -167.147
  C        9.192    -214.155    -167.707
  O        9.126    -214.514    -169.081
  C        7.883    -213.598    -167.140
  N        7.610    -212.208    -167.521
  C        6.513    -211.962    -168.337
  O        5.791    -212.832    -168.817
  N        6.271    -210.640    -168.629
  C        7.026    -209.577    -168.229
  O        6.776    -208.422    -168.547
  C        8.189    -209.900    -167.388
  C        8.423    -211.176    -167.081
  O       11.961    -213.191    -162.994
  O       13.625    -213.136    -164.917
  H        8.754    -213.750    -169.560
  H       12.708    -213.724    -162.661
  H        5.473    -210.440    -169.207
  H        8.810    -209.085    -167.043
  H        9.269    -211.436    -166.452
  H        7.050    -214.229    -167.455
  H       10.027    -213.455    -167.585
  H       10.428    -215.710    -166.773
  H        8.377    -215.569    -164.873
  H        9.651    -213.558    -163.822
  H       10.494    -215.114    -163.956
  P        8.884    -217.913    -166.728
  C        8.743    -218.114    -164.120
  O        8.102    -218.242    -165.371
  O       10.396    -217.688    -166.232
  O        8.768    -218.910    -167.830
  H       10.495    -216.911    -165.657
  H        9.368    -217.214    -164.083
  H        9.360    -218.995    -163.930
  H        7.982    -218.038    -163.338
  H       11.323    -209.552    -163.503
  H       12.404    -210.642    -162.668
  H       10.714    -211.050    -162.841

 3  4  5  6  7  8  9  10  11  12  13  23  28  29  30  31  32 0
 6-311+G(2d,p)
 ****
 33  34 0
 6-311+G(2d,p)
 ****
 1  2  14  15  16  17  18  19  20  21  22  24  25  26 0
 3-21G
 ****
 27  35  36  37  38  39  40  41  42  43  44  45 0
 3-21G
 ****


