%nproc=1
%NoSave
%Mem=1900MB
#P OB98/GEN NMR

erre ene a

0 1
  C        0.013      14.562    -234.697
  O        0.615      13.322    -235.018
  H        0.567      15.362    -235.196
  H        0.042      14.743    -233.618
  H       -1.023      14.581    -235.047
  P        0.076      12.005    -234.281
  C        1.536      11.371    -232.240
  O        0.477      12.181    -232.740
  C        2.883      11.957    -232.657
  O        2.991      13.324    -232.215
  C        4.069      11.226    -232.044
  O        4.300       9.994    -232.701
  C        5.159      12.266    -232.205
  O        5.684      12.273    -233.538
  C        4.385      13.572    -231.910
  N        4.547      14.028    -230.533
  C        5.378      15.141    -230.348
  O        5.918      15.682    -231.312
  N        5.587      15.592    -229.069
  C        5.012      15.003    -228.069
  N        5.263      15.500    -226.829
  C        4.120      13.837    -228.222
  C        3.936      13.404    -229.468
  O        0.472      10.688    -234.876
  O       -1.513      12.204    -234.269
  H        4.910      12.384    -234.127
  H       -1.911      11.823    -235.073
  H        3.656      13.381    -227.360
  H        3.294      12.555    -229.669
  H        4.717      14.377    -232.578
  H        5.990      12.086    -231.522
  H        3.904      11.070    -230.973
  H        2.937      11.950    -233.753
  H        5.892      16.296    -226.769
  H        1.409      10.372    -232.668
  H        4.805      15.181    -225.988
  H        1.480      11.293    -231.148
  P        4.756       8.700    -231.872
  C        7.249       8.037    -231.944
  O        6.287       8.975    -231.465
  O        4.494       7.392    -232.537
  O        3.984       8.872    -230.478
  H        3.019       8.669    -230.573
  H        8.224       8.324    -231.610
  H        7.229       8.020    -233.014
  H        7.016       7.063    -231.567

 6  7  8  9  10  11  12  13  14  15  16  26  30  31  32  33  35 0
 6-311+G(2d,p)
 ****
 37  38 0
 6-311+G(2d,p)
 ****
 1  2  3  4  5  17  18  19  20  21  22  23  24  25 0
 3-21G
 ****
 27  28  29  34  36  39  40  41  42  43  44  45  46 0
 3-21G
 ****


