%nproc=1
%NoSave
%Mem=1900MB
#P OB98/GEN NMR

erre ene a

0 1
  C      895.375     417.745    -582.852
  O      894.976     416.603    -582.110
  P      894.740     415.227    -582.922
  C      895.408     414.130    -580.661
  O      894.597     414.074    -581.827
  C      894.815     413.251    -579.547
  O      893.630     413.911    -579.019
  C      894.387     411.841    -579.990
  O      894.599     410.975    -578.869
  C      892.905     411.997    -580.249
  O      892.209     410.758    -580.219
  C      892.521     412.995    -579.162
  N      887.535     412.583    -579.894
  C      888.467     411.589    -579.684
  N      888.005     410.333    -579.599
  N      889.760     411.827    -579.569
  C      890.068     413.138    -579.647
  C      889.225     414.207    -579.891
  C      887.812     413.941    -579.982
  O      886.927     414.793    -580.086
  N      889.934     415.395    -579.997
  C      891.176     415.042    -579.740
  N      891.299     413.708    -579.484
  O      896.163     414.959    -583.588
  O      893.615     415.264    -583.920
  H      891.254     410.940    -580.315
  H      896.200     415.321    -584.493
  H      886.557     412.347    -579.948
  H      892.026     415.715    -579.734
  H      892.363     412.489    -578.179
  H      892.752     412.439    -581.249
  H      887.037     410.082    -579.651
  H      894.946     411.481    -580.867
  H      888.680     409.589    -579.425
  H      895.547     413.196    -578.734
  H      895.443     415.162    -580.296
  H      896.426     413.800    -580.903
  P      894.626     409.396    -579.141
  C      897.064     408.830    -578.491
  O      895.693     408.749    -578.139
  O      895.326     409.281    -580.571
  O      893.270     408.746    -579.161
  H      894.972     408.517    -581.052
  H      897.672     408.728    -577.583
  H      897.307     409.778    -578.957
  H      897.315     408.014    -579.183
  H      895.493     418.577    -582.190
  H      894.628     417.974    -583.583
  H      896.305     417.545    -583.343

 3  4  5  6  7  8  9  10  11  12  23  26  30  31 0
 6-311+G(2d,p)
 ****
 33  35  36  37  38 0
 6-311+G(2d,p)
 ****
 1  2  13  14  15  16  17  18  19  20  21  22  24  25 0
 3-21G
 ****
 27  28  29  32  34  39  40  41  42  43  44  45  46  47  48  49 0
 3-21G
 ****


