%nproc=1
%NoSave
%Mem=1900MB
#P OB98/GEN NMR

erre ene a

0 1
  C     -205.833     347.014     -49.881
  O     -206.074     347.389     -51.242
  P     -205.080     348.417     -51.962
  C     -204.719     350.959     -52.098
  O     -205.388     349.901     -51.430
  C     -204.560     352.204     -51.210
  O     -205.857     352.767     -50.877
  C     -203.818     351.945     -49.892
  O     -203.042     353.120     -49.617
  C     -204.955     351.810     -48.905
  O     -204.534     351.986     -47.559
  C     -205.923     352.874     -49.441
  N     -207.276     352.700     -48.949
  C     -207.522     353.032     -47.615
  O     -206.590     353.362     -46.880
  N     -208.809     352.961     -47.144
  C     -209.740     352.454     -47.894
  N     -211.004     352.411     -47.400
  C     -209.478     351.911     -49.245
  C     -208.246     352.088     -49.714
  O     -204.981     348.285     -53.445
  O     -203.667     348.083     -51.265
  H     -205.325     352.044     -46.979
  H     -202.957     348.200     -51.923
  H     -210.260     351.417     -49.800
  H     -207.958     351.744     -50.694
  H     -205.576     353.881     -49.168
  H     -205.402     350.812     -48.989
  H     -203.148     351.081     -49.925
  H     -204.019     352.961     -51.798
  H     -211.167     352.759     -46.459
  H     -205.278     351.230     -53.000
  H     -211.795     352.072     -47.946
  H     -203.742     350.596     -52.447
  P     -201.449     352.989     -49.476
  C     -200.032     351.454     -47.926
  O     -201.126     352.340     -48.049
  O     -201.011     354.518     -49.248
  O     -200.730     352.427     -50.667
  H     -200.087     354.632     -49.542
  H     -199.796     351.333     -46.866
  H     -199.148     351.844     -48.440
  H     -200.292     350.478     -48.347
  H     -206.588     346.326     -49.562
  H     -205.860     347.886     -49.261
  H     -204.872     346.550     -49.804

 3  4  5  6  7  8  9  10  11  12  13  23  27  28  29  30  32 0
 6-311+G(2d,p)
 ****
 34  35 0
 6-311+G(2d,p)
 ****
 1  2  14  15  16  17  18  19  20  21  22  24  25  26 0
 3-21G
 ****
 31  33  36  37  38  39  40  41  42  43  44  45  46 0
 3-21G
 ****


