%nproc=1
%NoSave
%Mem=1900MB
#P OB98/GEN NMR

erre ene a

0 1
  C     -140.967      23.310      27.811
  O     -139.837      24.156      27.869
  H     -140.797      22.551      27.043
  H     -141.851      23.891      27.540
  H     -141.126      22.811      28.771
  P     -139.793      25.216      29.073
  C     -137.984      23.843      30.328
  O     -139.282      24.416      30.367
  C     -137.457      23.634      31.745
  O     -137.239      24.907      32.393
  C     -138.398      22.850      32.654
  O     -138.271      21.448      32.462
  C     -137.879      23.267      34.020
  O     -136.663      22.551      34.317
  C     -137.578      24.755      33.801
  N     -139.364      28.165      37.098
  C     -138.178      27.455      37.110
  N     -137.355      27.678      38.156
  N     -137.832      26.599      36.184
  C     -138.759      26.469      35.205
  C     -139.967      27.118      35.082
  C     -140.333      28.067      36.108
  O     -141.359      28.740      36.133
  N     -140.629      26.732      33.947
  C     -139.835      25.838      33.394
  N     -138.689      25.636      34.122
  O     -141.342      25.479      29.392
  O     -139.077      26.490      28.779
  H     -136.861      21.604      34.206
  H     -141.456      26.415      29.645
  H     -139.586      28.803      37.842
  H     -140.040      25.312      32.472
  H     -136.718      25.098      34.385
  H     -138.584      23.049      34.822
  H     -137.582      28.286      38.927
  H     -139.437      23.183      32.541
  H     -136.466      27.194      38.170
  H     -136.484      23.133      31.673
  H     -137.309      24.516      29.788
  H     -138.032      22.887      29.799
  P     -139.435      20.508      33.049
  C     -140.724      20.027      30.848
  O     -140.696      20.731      32.084
  O     -139.862      21.263      34.395
  O     -139.038      19.094      33.298
  H     -140.281      20.633      35.012
  H     -141.619      20.275      30.317
  H     -140.701      18.974      31.037
  H     -139.873      20.303      30.261

 6  7  8  9  10  11  12  13  14  15  26  29  33  34 0
 6-311+G(2d,p)
 ****
 36  38  39  40  41 0
 6-311+G(2d,p)
 ****
 1  2  3  4  5  16  17  18  19  20  21  22  23  24  25 0
 3-21G
 ****
 27  28  30  31  32  35  37  42  43  44  45  46  47 0
 3-21G
 ****
 48  49 0
 3-21G
 ****


