%nproc=1
%NoSave
%Mem=1900MB
#P OB98/GEN NMR

erre ene a

0 1
  C     -458.986    -525.638     388.754
  O     -459.494    -526.398     387.671
  H     -457.903    -525.797     388.810
  H     -459.445    -525.966     389.688
  H     -459.176    -524.574     388.590
  P     -461.071    -526.307     387.407
  C     -461.928    -528.199     388.967
  O     -461.786    -526.800     388.767
  C     -462.598    -528.479     390.313
  O     -463.931    -527.884     390.310
  C     -462.771    -529.967     390.633
  O     -462.553    -530.175     392.032
  C     -464.232    -530.237     390.319
  O     -464.736    -531.369     390.997
  C     -464.847    -528.905     390.745
  N     -469.636    -530.460     390.994
  C     -468.536    -530.812     391.756
  N     -468.733    -531.723     392.723
  N     -467.337    -530.315     391.576
  C     -467.284    -529.393     390.578
  C     -468.298    -528.965     389.749
  C     -469.619    -529.534     389.941
  O     -470.625    -529.274     389.302
  N     -467.831    -528.039     388.840
  C     -466.541    -527.907     389.114
  N     -466.170    -528.723     390.167
  O     -461.347    -527.520     386.393
  O     -461.565    -525.004     386.881
  H     -464.435    -532.170     390.518
  H     -462.100    -527.316     385.804
  H     -470.526    -530.882     391.174
  H     -465.844    -527.266     388.604
  H     -464.976    -528.823     391.827
  H     -464.357    -530.392     389.239
  H     -469.637    -532.132     392.954
  H     -462.088    -530.613     390.061
  H     -467.934    -531.996     393.301
  H     -462.029    -527.964     391.097
  H     -460.941    -528.666     388.949
  H     -462.539    -528.628     388.164
  P     -461.052    -530.450     392.520
  C     -460.698    -532.970     391.991
  O     -460.425    -531.635     391.622
  O     -461.261    -531.146     393.960
  O     -460.214    -529.220     392.638
  H     -461.011    -530.535     394.667
  H     -460.217    -533.635     391.305
  H     -461.755    -533.137     391.968
  H     -460.329    -533.149     392.979

 6  7  8  9  10  11  12  13  14  15  26  29  33  34 0
 6-311+G(2d,p)
 ****
 36  38  39  40  41 0
 6-311+G(2d,p)
 ****
 1  2  3  4  5  16  17  18  19  20  21  22  23  24  25 0
 3-21G
 ****
 27  28  30  31  32  35  37  42  43  44  45  46  47 0
 3-21G
 ****
 48  49 0
 3-21G
 ****


