%nproc=1
%NoSave
%Mem=1900MB
#P OB98/GEN NMR

erre ene a

0 1
  C      -76.966       3.936     -58.994
  O      -76.308       4.541     -60.095
  P      -75.846       6.075     -60.029
  C      -73.945       5.732     -61.727
  O      -75.165       6.408     -61.445
  C      -73.744       5.590     -63.235
  O      -74.553       4.488     -63.713
  C      -74.149       6.832     -64.020
  O      -73.257       6.992     -65.126
  C      -75.528       6.497     -64.566
  O      -75.807       7.241     -65.764
  C      -75.417       4.981     -64.754
  N      -80.194       4.653     -66.610
  C      -79.142       5.419     -66.971
  N      -77.912       5.473     -66.418
  C      -77.801       4.579     -65.422
  C      -78.785       3.725     -64.945
  C      -80.035       3.785     -65.583
  N      -81.104       2.993     -65.222
  N      -78.308       2.973     -63.888
  C      -77.056       3.350     -63.747
  N      -76.699       4.310     -64.656
  O      -75.019       6.434     -58.843
  O      -77.208       6.908     -60.078
  H      -76.744       7.070     -65.998
  H      -77.152       7.687     -59.491
  H      -79.313       6.084     -67.814
  H      -76.374       2.972     -63.001
  H      -74.964       4.725     -65.721
  H      -76.290       6.756     -63.823
  H      -74.156       7.740     -63.408
  H      -72.694       5.334     -63.425
  H      -73.993       4.736     -61.275
  H      -81.919       3.017     -65.813
  H      -80.935       2.230     -64.579
  H      -73.112       6.279     -61.274
  P      -72.257       8.254     -65.045
  C      -70.518       6.852     -66.382
  O      -71.248       8.052     -66.274
  O      -71.657       8.406     -63.686
  O      -73.229       9.449     -65.488
  H      -73.972       9.122     -66.043
  H      -69.861       6.920     -67.256
  H      -71.197       6.007     -66.524
  H      -69.904       6.693     -65.491
  H      -77.192       2.917     -59.230
  H      -77.873       4.464     -58.787
  H      -76.329       3.971     -58.135

 3  4  5  6  7  8  9  10  11  12  22  25  29  30  31  32 0
 6-311+G(2d,p)
 ****
 33  36  37 0
 6-311+G(2d,p)
 ****
 1  2  13  14  15  16  17  18  19  20  21  23  24  26 0
 3-21G
 ****
 27  28  34  35  38  39  40  41  42  43  44  45  46  47  48 0
 3-21G
 ****


