%nproc=1
%NoSave
%Mem=1900MB
#P OB98/GEN NMR

erre ene a

0 1
  C       35.472    -469.174     590.962
  O       34.286    -469.862     590.646
  H       35.224    -468.157     591.258
  H       36.129    -469.137     590.084
  H       35.990    -469.667     591.786
  P       34.418    -471.405     590.201
  C       33.510    -470.552     587.913
  O       33.448    -471.547     588.919
  C       32.106    -470.222     587.399
  O       31.478    -471.442     586.925
  C       31.193    -469.605     588.458
  O       30.449    -468.526     587.869
  C       30.263    -470.733     588.851
  O       29.014    -470.253     589.355
  C       30.186    -471.557     587.559
  N       29.848    -472.963     587.823
  C       28.735    -473.469     587.144
  O       28.085    -472.756     586.377
  N       28.355    -474.766     587.379
  C       28.984    -475.467     588.272
  N       28.547    -476.743     588.482
  C       30.135    -474.949     589.046
  C       30.505    -473.703     588.771
  O       33.637    -472.175     591.357
  O       35.816    -471.879     589.983
  H       28.526    -469.830     588.607
  H       33.811    -473.147     591.327
  H       30.614    -475.571     589.797
  H       31.338    -473.248     589.296
  H       29.437    -471.132     586.872
  H       30.734    -471.336     589.645
  H       31.743    -469.231     589.318
  H       32.199    -469.572     586.511
  H       27.746    -477.055     587.930
  H       34.140    -470.916     587.086
  H       28.943    -477.370     589.171
  H       33.970    -469.641     588.333
  P       31.265    -467.134     587.685
  C       30.882    -466.530     590.178
  O       30.749    -466.132     588.827
  O       30.682    -466.536     586.326
  O       32.746    -467.329     587.635
  H       31.284    -466.714     585.578
  H       30.496    -465.762     590.816
  H       31.916    -466.693     590.402
  H       30.335    -467.435     590.339

 6  7  8  9  10  11  12  13  14  15  16  26  30  31  32  33  35 0
 6-311+G(2d,p)
 ****
 37  38 0
 6-311+G(2d,p)
 ****
 1  2  3  4  5  17  18  19  20  21  22  23  24  25 0
 3-21G
 ****
 27  28  29  34  36  39  40  41  42  43  44  45  46 0
 3-21G
 ****


