%nproc=1
%NoSave
%Mem=1900MB
#P OB98/GEN NMR

erre ene a

0 1
  C      155.738     214.522      69.780
  O      154.534     214.986      70.359
  P      154.586     215.923      71.661
  C      152.390     214.742      72.338
  O      153.107     215.980      72.282
  C      151.034     214.942      73.001
  O      151.192     215.408      74.359
  C      150.161     215.988      72.310
  O      149.597     215.467      71.120
  C      149.149     216.308      73.407
  O      148.110     215.320      73.447
  C      150.023     216.218      74.678
  N      150.673     219.029      78.874
  C      150.087     217.827      78.678
  N      149.922     217.160      77.515
  C      150.408     217.877      76.489
  C      151.001     219.133      76.529
  C      151.150     219.717      77.797
  N      151.796     220.916      78.026
  N      151.342     219.547      75.249
  C      150.959     218.567      74.464
  N      150.447     217.506      75.171
  O      155.251     217.244      71.473
  O      155.389     215.039      72.731
  H      147.465     215.590      74.129
  H      156.203     215.512      73.002
  H      149.730     217.332      79.572
  H      151.037     218.569      73.384
  H      149.507     215.702      75.493
  H      148.680     217.280      73.273
  H      150.749     216.886      72.090
  H      150.524     213.970      73.035
  H      152.994     214.040      72.934
  H      151.980     221.160      78.985
  H      152.409     221.263      77.297
  H      152.270     214.349      71.327
  P      150.167     215.921      69.696
  C      147.871     216.579      68.743
  O      148.978     215.708      68.629
  O      151.479     215.328      69.307
  O      150.249     217.520      69.820
  H      150.998     217.837      69.276
  H      147.234     216.245      69.571
  H      147.299     216.549      67.826
  H      148.195     217.609      68.932
  H      155.513     213.916      68.927
  H      156.278     213.941      70.498
  H      156.333     215.358      69.476

 3  4  5  6  7  8  9  10  11  12  22  25  29  30  31  32 0
 6-311+G(2d,p)
 ****
 33  36  37 0
 6-311+G(2d,p)
 ****
 1  2  13  14  15  16  17  18  19  20  21  23  24  26 0
 3-21G
 ****
 27  28  34  35  38  39  40  41  42  43  44  45  46  47  48 0
 3-21G
 ****


