%nproc=1
%NoSave
%Mem=1900MB
#P OB98/GEN NMR

erre ene a

0 1
  C     1910.787      68.145     333.716
  O     1910.298      67.864     332.423
  H     1910.516      69.165     333.983
  H     1911.881      68.059     333.727
  H     1910.357      67.462     334.448
  P     1910.384      66.347     331.914
  C     1907.932      65.457     331.867
  O     1909.153      65.566     332.596
  C     1906.862      66.350     332.515
  O     1907.321      67.732     332.489
  C     1905.501      66.306     331.798
  O     1904.470      66.405     332.768
  C     1905.530      67.567     330.964
  O     1904.230      68.045     330.609
  C     1906.281      68.526     331.898
  N     1906.844      69.674     331.182
  C     1905.932      70.631     330.704
  O     1904.735      70.610     330.915
  N     1906.488      71.629     329.961
  C     1907.807      71.762     329.632
  O     1908.227      72.680     328.935
  C     1908.699      70.737     330.155
  C     1908.189      69.756     330.890
  O     1911.660      65.780     332.698
  O     1910.484      66.163     330.434
  H     1912.465      65.919     332.174
  H     1904.341      68.900     330.137
  H     1905.836      72.324     329.607
  H     1909.754      70.805     329.901
  H     1908.824      68.954     331.274
  H     1905.626      68.862     332.699
  H     1906.091      67.410     330.025
  H     1905.352      65.406     331.173
  H     1906.744      66.067     333.559
  H     1907.588      64.413     331.881
  H     1908.102      65.760     330.833
  P     1904.300      65.170     333.785
  C     1904.500      66.454     336.062
  O     1905.107      65.595     335.110
  O     1905.229      64.059     333.091
  O     1902.874      64.783     333.990
  H     1906.014      64.439     332.655
  H     1905.179      66.626     336.871
  H     1903.608      65.997     336.437
  H     1904.255      67.386     335.597

 6  7  8  9  10  11  12  13  14  15  16  27  31  32  33  34  35 0
 6-311+G(2d,p)
 ****
 36  37 0
 6-311+G(2d,p)
 ****
 1  2  3  4  5  17  18  19  20  21  22  23  24  25 0
 3-21G
 ****
 26  28  29  30  38  39  40  41  42  43  44  45 0
 3-21G
 ****


