%nproc=1
%NoSave
%Mem=1900MB
#P OB98/GEN NMR

erre ene a

0 1
  C     -387.696    -576.804     350.120
  O     -387.518    -577.112     348.752
  P     -387.872    -578.583     348.223
  C     -385.776    -578.886     346.704
  O     -387.176    -578.739     346.777
  C     -385.239    -578.485     345.318
  O     -385.868    -579.343     344.336
  C     -385.572    -577.058     344.897
  O     -384.700    -576.674     343.832
  C     -386.988    -577.201     344.365
  O     -387.358    -576.136     343.509
  C     -386.949    -578.606     343.700
  N     -388.219    -579.324     343.870
  C     -389.134    -579.236     342.817
  O     -388.881    -578.667     341.755
  N     -390.374    -579.765     343.067
  C     -390.793    -580.299     344.248
  O     -391.971    -580.472     344.549
  C     -389.722    -580.579     345.231
  C     -388.513    -580.059     345.019
  O     -389.430    -578.463     347.874
  O     -387.594    -579.686     349.174
  H     -387.577    -575.362     344.096
  H     -389.965    -578.803     348.612
  H     -391.080    -579.577     342.350
  H     -389.984    -581.132     346.120
  H     -387.722    -580.203     345.745
  H     -386.738    -578.541     342.628
  H     -387.683    -577.211     345.203
  H     -385.515    -576.327     345.709
  H     -384.161    -578.660     345.280
  H     -385.503    -579.925     346.939
  H     -385.285    -578.267     347.472
  P     -383.803    -575.356     344.003
  C     -385.078    -573.950     342.292
  O     -383.861    -574.583     342.607
  O     -382.444    -575.569     344.586
  O     -384.714    -574.444     344.961
  H     -384.175    -573.748     345.372
  H     -384.876    -573.080     341.654
  H     -385.616    -573.609     343.191
  H     -385.723    -574.645     341.729
  H     -387.413    -575.787     350.296
  H     -387.086    -577.452     350.714
  H     -388.724    -576.940     350.385

 3  4  5  6  7  8  9  10  11  12  13  23  28  29  30  31  32 0
 6-311+G(2d,p)
 ****
 33  34 0
 6-311+G(2d,p)
 ****
 1  2  14  15  16  17  18  19  20  21  22  24  25  26  27 0
 3-21G
 ****
 35  36  37  38  39  40  41  42  43  44  45 0
 3-21G
 ****


