%nproc=1
%NoSave
%Mem=1900MB
#P OB98/GEN NMR

erre ene a

0 1
  C     -223.623     151.307     392.215
  O     -223.397     152.637     391.754
  P     -222.639     152.842     390.356
  C     -221.897     155.377     390.503
  O     -222.707     154.377     389.923
  C     -222.298     156.746     389.922
  O     -222.144     156.749     388.487
  C     -223.747     157.129     390.216
  O     -223.887     157.768     391.473
  C     -224.081     158.024     389.039
  O     -223.521     159.335     389.234
  C     -223.354     157.292     387.890
  N     -224.073     156.198     387.197
  C     -225.241     156.471     386.495
  O     -225.748     157.586     386.397
  N     -225.831     155.404     385.870
  C     -225.299     154.153     385.731
  O     -225.846     153.250     385.110
  C     -223.993     153.957     386.366
  C     -223.458     154.959     387.066
  O     -223.581     152.105     389.298
  O     -221.239     152.308     390.330
  H     -223.737     159.862     388.443
  H     -223.119     151.339     388.908
  H     -226.715     155.569     385.413
  H     -223.512     152.996     386.242
  H     -222.486     154.820     387.538
  H     -223.044     158.004     387.110
  H     -225.157     158.166     388.942
  H     -224.390     156.244     390.155
  H     -221.624     157.508     390.337
  H     -220.843     155.189     390.307
  H     -222.033     155.376     391.587
  P     -225.040     157.299     392.479
  C     -226.056     159.572     393.106
  O     -225.217     158.513     393.521
  O     -224.872     155.948     393.088
  O     -226.377     157.403     391.596
  H     -226.606     156.528     391.212
  H     -226.217     160.246     393.951
  H     -227.019     159.190     392.764
  H     -225.570     160.134     392.299
  H     -224.135     151.337     393.154
  H     -222.685     150.807     392.337
  H     -224.219     150.778     391.501

 3  4  5  6  7  8  9  10  11  12  13  23  28  29  30  31  32 0
 6-311+G(2d,p)
 ****
 33  34 0
 6-311+G(2d,p)
 ****
 1  2  14  15  16  17  18  19  20  21  22  24  25  26  27 0
 3-21G
 ****
 35  36  37  38  39  40  41  42  43  44  45 0
 3-21G
 ****


