%nproc=1
%NoSave
%Mem=1900MB
#P OB98/GEN NMR

erre ene a

0 1
  C      267.930    -704.249     123.797
  O      267.329    -704.725     124.981
  H      267.269    -704.477     122.956
  H      268.885    -704.757     123.640
  H      268.088    -703.169     123.836
  P      267.896    -704.218     126.390
  C      265.643    -704.032     127.642
  O      266.880    -704.726     127.523
  C      264.694    -704.385     126.491
  O      264.204    -705.738     126.665
  C      263.475    -703.458     126.509
  O      262.923    -703.275     125.206
  C      262.480    -704.235     127.364
  O      261.131    -703.842     127.137
  C      262.794    -705.673     126.952
  N      259.656    -709.438     128.343
  C      259.580    -708.595     127.251
  N      258.510    -708.758     126.442
  N      260.458    -707.658     126.997
  C      261.434    -707.557     127.934
  C      261.598    -708.326     129.068
  C      260.643    -709.378     129.315
  O      260.654    -710.146     130.276
  N      262.697    -707.912     129.790
  C      263.180    -706.901     129.099
  N      262.455    -706.653     127.957
  O      267.622    -702.637     126.364
  O      269.340    -704.520     126.656
  H      260.976    -703.852     126.175
  H      268.244    -702.176     126.952
  H      258.960    -710.149     128.483
  H      264.057    -706.320     129.373
  H      262.257    -705.937     126.035
  H      262.706    -704.031     128.415
  H      257.724    -709.332     126.692
  H      263.700    -702.489     126.941
  H      258.279    -707.971     125.824
  H      265.232    -704.359     125.539
  H      265.874    -702.958     127.626
  H      265.183    -704.246     128.612
  P      263.202    -701.872     124.477
  C      263.611    -702.978     122.132
  O      262.875    -702.060     122.920
  O      264.792    -701.727     124.532
  O      262.512    -700.719     125.120
  H      265.048    -701.079     125.208
  H      263.245    -702.958     121.127
  H      263.498    -703.963     122.533
  H      264.646    -702.706     122.141

 6  7  8  9  10  11  12  13  14  15  26  29  33  34 0
 6-311+G(2d,p)
 ****
 36  38  39  40  41 0
 6-311+G(2d,p)
 ****
 1  2  3  4  5  16  17  18  19  20  21  22  23  24  25 0
 3-21G
 ****
 27  28  30  31  32  35  37  42  43  44  45  46  47 0
 3-21G
 ****
 48  49 0
 3-21G
 ****


