%nproc=1
%NoSave
%Mem=1900MB
#P OB98/GEN NMR

erre ene a

0 1
  C      307.826    -103.125      72.287
  O      308.990    -102.562      71.679
  P      310.279    -102.262      72.582
  C      309.538    -100.143      73.852
  O      309.810    -101.532      73.936
  C      309.435     -99.515      75.249
  O      310.710     -99.633      75.936
  C      309.055     -98.028      75.215
  O      307.957     -97.708      76.072
  C      310.365     -97.318      75.521
  O      310.175     -96.017      76.052
  C      311.097     -98.331      76.411
  N      312.548     -98.134      76.382
  C      313.086     -97.327      77.376
  O      312.403     -96.727      78.204
  N      314.447     -97.174      77.354
  C      315.291     -97.674      76.408
  O      316.501     -97.472      76.404
  C      314.659     -98.469      75.342
  C      313.335     -98.659      75.382
  O      311.427    -101.614      71.883
  O      310.690    -103.724      73.109
  H      309.684     -96.097      76.900
  H      311.667    -103.775      73.116
  H      314.855     -96.605      78.080
  H      315.291     -98.861      74.563
  H      312.840     -99.225      74.605
  H      310.777     -98.237      77.456
  H      310.923     -97.208      74.584
  H      308.708     -97.729      74.221
  H      308.689    -100.087      75.811
  H      308.592     -99.990      73.325
  H      310.309     -99.658      73.246
  P      306.453     -98.195      75.836
  C      305.896     -96.990      73.608
  O      306.173     -98.216      74.259
  O      305.409     -97.504      76.649
  O      306.512     -99.751      76.221
  H      305.703     -99.990      76.710
  H      305.381     -97.205      72.668
  H      306.836     -96.477      73.384
  H      305.258     -96.348      74.223
  H      307.066    -103.259      71.546
  H      307.468    -102.466      73.050
  H      308.072    -104.072      72.720

 3  4  5  6  7  8  9  10  11  12  13  23  28  29  30  31  32 0
 6-311+G(2d,p)
 ****
 33  34 0
 6-311+G(2d,p)
 ****
 1  2  14  15  16  17  18  19  20  21  22  24  25  26  27 0
 3-21G
 ****
 35  36  37  38  39  40  41  42  43  44  45 0
 3-21G
 ****


