%nproc=1
%NoSave
%Mem=1900MB
#P OB98/GEN NMR

erre ene a

0 1
  C       19.022    -440.214     496.555
  O       18.461    -440.344     497.866
  P       17.798    -439.044     498.533
  C       15.479    -439.367     497.394
  O       16.611    -438.532     497.583
  C       14.389    -439.037     498.420
  O       13.828    -437.726     498.198
  C       13.207    -439.995     498.387
  O       13.481    -441.183     499.116
  C       12.146    -439.171     499.099
  O       12.345    -439.242     500.526
  C       12.437    -437.756     498.592
  N        8.175    -435.315     497.131
  C        8.694    -435.572     498.353
  N        9.824    -436.243     498.662
  C       10.446    -436.661     497.548
  C       10.038    -436.477     496.237
  C        8.843    -435.768     496.041
  N        8.317    -435.510     494.795
  N       10.931    -437.056     495.360
  C       11.869    -437.567     496.129
  N       11.621    -437.360     497.460
  O       18.928    -437.925     498.347
  O       17.431    -439.223     499.970
  H       11.617    -438.738     500.938
  H       18.917    -437.317     499.108
  H        8.126    -435.183     499.196
  H       12.750    -438.088     495.770
  H       12.298    -436.996     499.374
  H       11.133    -439.534     498.902
  H       12.896    -440.198     497.352
  H       14.851    -439.050     499.419
  H       15.769    -440.417     497.482
  H        7.470    -434.972     494.733
  H        8.825    -435.825     493.978
  H       15.108    -439.234     496.373
  P       13.271    -442.577     498.347
  C       15.858    -442.692     498.095
  O       14.594    -442.789     497.465
  O       12.138    -442.231     497.272
  O       12.883    -443.716     499.230
  H       11.601    -443.025     497.083
  H       16.609    -443.154     497.449
  H       15.859    -443.212     499.056
  H       16.118    -441.639     498.245
  H       19.424    -441.156     496.244
  H       19.802    -439.481     496.572
  H       18.260    -439.908     495.870

 3  4  5  6  7  8  9  10  11  12  22  25  29  30  31  32 0
 6-311+G(2d,p)
 ****
 33  36  37 0
 6-311+G(2d,p)
 ****
 1  2  13  14  15  16  17  18  19  20  21  23  24  26 0
 3-21G
 ****
 27  28  34  35  38  39  40  41  42  43  44  45  46  47  48 0
 3-21G
 ****


