%nproc=1
%NoSave
%Mem=1900MB
#P OB98/GEN NMR

erre ene a

0 1
  C     -113.825      41.549      46.628
  O     -113.780      40.351      45.848
  P     -114.659      39.106      46.356
  C     -114.080      36.789      47.420
  O     -113.611      38.032      46.927
  C     -113.054      36.155      48.366
  O     -111.845      35.813      47.625
  C     -112.644      37.047      49.545
  O     -112.466      36.185      50.677
  C     -111.307      37.611      49.096
  O     -110.521      38.051      50.194
  C     -110.738      36.411      48.332
  N     -109.657      36.780      47.422
  C     -108.473      37.223      47.996
  O     -108.337      37.384      49.207
  N     -107.460      37.521      47.126
  C     -107.542      37.495      45.763
  O     -106.601      37.773      45.028
  C     -108.856      37.129      45.211
  C     -109.836      36.796      46.054
  O     -115.153      38.483      44.971
  O     -115.745      39.506      47.298
  H     -114.486      38.530      44.264
  H     -109.651      38.353      49.862
  H     -106.579      37.813      47.524
  H     -108.978      37.154      44.136
  H     -110.820      36.544      45.682
  H     -110.355      35.657      49.032
  H     -111.468      38.457      48.420
  H     -113.387      37.816      49.775
  H     -113.479      35.215      48.744
  H     -114.261      36.104      46.587
  H     -115.042      36.940      47.922
  P     -112.957      36.711      52.117
  C     -111.769      37.807      54.178
  O     -111.655      37.207      52.907
  O     -113.294      35.311      52.827
  O     -114.125      37.639      52.088
  H     -112.595      34.648      52.710
  H     -110.778      37.851      54.636
  H     -112.428      37.229      54.831
  H     -112.154      38.825      54.074
  H     -113.198      42.291      46.179
  H     -113.479      41.342      47.619
  H     -114.831      41.910      46.670

 3  4  5  6  7  8  9  10  11  12  13  24  28  29  30  31  32 0
 6-311+G(2d,p)
 ****
 33  34 0
 6-311+G(2d,p)
 ****
 1  2  14  15  16  17  18  19  20  21  22  23  25  26  27 0
 3-21G
 ****
 35  36  37  38  39  40  41  42  43  44  45 0
 3-21G
 ****


