%nproc=1
%NoSave
%Mem=1900MB
#P OB98/GEN NMR

erre ene a

0 1
  C       93.456      13.981      19.113
  O       92.651      13.873      17.951
  P       91.121      13.433      18.153
  C       91.439      10.966      17.387
  O       91.156      11.859      18.460
  C       91.372       9.520      17.867
  O       92.407       9.270      18.833
  C       90.070       9.160      18.561
  O       89.040       8.953      17.613
  C       90.471       7.901      19.323
  O       90.339       6.732      18.497
  C       91.957       8.174      19.660
  N       92.168       8.450      21.072
  C       92.343       7.329      21.893
  O       92.295       6.196      21.409
  N       92.529       7.522      23.239
  C       92.534       8.725      23.721
  N       92.726       8.858      25.061
  C       92.331       9.932      22.893
  C       92.149       9.723      21.591
  O       90.521      13.511      16.672
  O       90.353      14.267      19.123
  H       90.933       6.062      18.895
  H       89.559      13.672      16.695
  H       92.343      10.913      23.347
  H       91.993      10.552      20.911
  H       92.574       7.309      19.387
  H       89.844       7.741      20.204
  H       89.781       9.945      19.269
  H       91.541       8.863      17.003
  H       92.855       8.012      25.604
  H       92.446      11.166      17.008
  H       92.769       9.752      25.530
  H       90.720      11.143      16.580
  P       87.674       9.766      17.807
  C       86.448       7.772      18.857
  O       86.959       9.076      19.064
  O       86.787       9.234      16.582
  O       87.766      11.254      17.830
  H       85.954       9.735      16.533
  H       86.134       7.363      19.821
  H       87.217       7.123      18.430
  H       85.582       7.813      18.190
  H       94.445      14.280      18.835
  H       93.496      13.034      19.609
  H       93.035      14.711      19.772

 3  4  5  6  7  8  9  10  11  12  13  21  23  27  28  29  30  32 0
 6-311+G(2d,p)
 ****
 34  35 0
 6-311+G(2d,p)
 ****
 1  2  14  15  16  17  18  19  20  22  24  25  26 0
 3-21G
 ****
 31  33  36  37  38  39  40  41  42  43  44  45  46 0
 3-21G
 ****


