%nproc=1
%NoSave
%Mem=1900MB
#P OB98/GEN NMR

erre ene a

0 1
  C      220.699    -219.214      57.209
  O      219.331    -219.405      57.513
  H      221.108    -218.469      57.896
  H      220.809    -218.842      56.186
  H      221.258    -220.146      57.327
  P      218.525    -220.560      56.751
  C      216.499    -219.353      55.702
  O      216.977    -220.147      56.782
  C      215.045    -218.959      55.954
  O      214.206    -220.134      55.970
  C      214.817    -218.268      57.292
  O      215.251    -216.924      57.255
  C      213.317    -218.451      57.456
  O      212.594    -217.469      56.697
  C      213.107    -219.866      56.873
  N      213.007    -220.897      57.905
  C      211.922    -221.764      57.809
  O      211.060    -221.675      56.937
  N      211.845    -222.731      58.777
  C      212.663    -222.839      59.866
  O      212.495    -223.669      60.754
  C      213.774    -221.880      59.929
  C      213.895    -220.969      58.959
  O      218.816    -221.954      57.196
  O      218.921    -220.344      55.213
  H      213.024    -217.428      55.822
  H      219.557    -221.032      54.943
  H      211.061    -223.361      58.733
  H      214.450    -221.943      60.769
  H      214.704    -220.250      58.992
  H      212.192    -219.896      56.268
  H      212.999    -218.351      58.494
  H      215.329    -218.818      58.092
  H      214.715    -218.321      55.125
  H      216.565    -219.938      54.779
  H      217.132    -218.466      55.608
  P      216.696    -216.535      57.820
  C      215.618    -215.202      59.738
  O      216.545    -215.174      58.657
  O      217.799    -216.541      56.818
  O      216.964    -217.628      58.961
  H      217.762    -218.141      58.734
  H      215.602    -214.246      60.219
  H      215.914    -215.951      60.442
  H      214.641    -215.430      59.365

 6  7  8  9  10  11  12  13  14  15  16  26  31  32  33  34  35 0
 6-311+G(2d,p)
 ****
 36  37 0
 6-311+G(2d,p)
 ****
 1  2  3  4  5  17  18  19  20  21  22  23  24  25 0
 3-21G
 ****
 27  28  29  30  38  39  40  41  42  43  44  45 0
 3-21G
 ****


