%nproc=1
%NoSave
%Mem=1900MB
#P OB98/GEN NMR

erre ene a

0 1
  C     -243.296     513.274     173.670
  O     -243.945     513.489     172.413
  P     -243.411     514.539     171.324
  C     -243.342     513.263     169.081
  O     -244.050     514.192     169.894
  C     -243.776     513.344     167.615
  O     -245.106     512.811     167.448
  C     -243.832     514.757     167.043
  O     -242.535     515.248     166.763
  C     -244.713     514.542     165.817
  O     -243.951     514.038     164.710
  C     -245.713     513.483     166.324
  N     -247.005     514.049     166.679
  C     -247.841     514.410     165.618
  O     -247.452     514.302     164.451
  N     -249.087     514.915     165.901
  C     -249.436     515.112     167.137
  N     -250.682     515.605     167.357
  C     -248.550     514.821     168.283
  C     -247.364     514.299     167.981
  O     -241.923     514.686     171.303
  O     -244.107     515.929     171.712
  H     -244.599     513.698     164.063
  H     -243.512     516.662     171.461
  H     -248.869     515.029     169.293
  H     -246.657     514.053     168.764
  H     -245.866     512.706     165.561
  H     -245.197     515.463     165.484
  H     -244.349     515.420     167.751
  H     -243.088     512.724     167.027
  H     -251.267     515.784     166.552
  H     -243.542     512.251     169.459
  H     -251.058     515.790     168.278
  H     -242.269     513.461     169.172
  P     -241.954     516.478     167.607
  C     -239.576     515.958     166.785
  O     -240.593     516.943     166.906
  O     -241.870     516.273     169.080
  O     -242.951     517.683     167.256
  H     -243.013     518.278     168.028
  H     -238.900     516.248     165.973
  H     -240.005     514.976     166.562
  H     -239.007     515.904     167.714
  H     -243.831     512.532     174.225
  H     -243.278     514.190     174.223
  H     -242.294     512.940     173.501

 3  4  5  6  7  8  9  10  11  12  13  23  27  28  29  30  32 0
 6-311+G(2d,p)
 ****
 34  35 0
 6-311+G(2d,p)
 ****
 1  2  14  15  16  17  18  19  20  21  22  24  25  26 0
 3-21G
 ****
 31  33  36  37  38  39  40  41  42  43  44  45  46 0
 3-21G
 ****


