%nproc=1
%NoSave
%Mem=1900MB
#P OB98/GEN NMR

erre ene a

0 1
  C     -159.546     193.607     319.163
  O     -158.304     194.277     319.191
  H     -159.822     193.421     318.123
  H     -160.317     194.231     319.622
  H     -159.480     192.648     319.688
  P     -157.623     194.513     320.627
  C     -155.601     192.940     320.194
  O     -156.048     194.268     320.435
  C     -154.433     192.937     319.205
  O     -154.939     193.256     317.883
  C     -153.342     193.955     319.549
  O     -152.062     193.368     319.245
  C     -153.602     195.105     318.593
  O     -152.435     195.882     318.329
  C     -154.180     194.374     317.377
  N     -155.000     195.263     316.556
  C     -154.333     196.302     315.897
  O     -153.113     196.442     316.028
  N     -155.065     197.196     315.153
  C     -156.361     197.107     315.136
  N     -157.031     198.037     314.406
  C     -157.110     196.065     315.875
  C     -156.371     195.180     316.545
  O     -158.093     193.239     321.474
  O     -157.971     195.804     321.292
  H     -151.729     195.282     318.012
  H     -158.194     193.462     322.421
  H     -158.190     196.046     315.849
  H     -156.834     194.387     317.122
  H     -153.370     193.968     316.752
  H     -154.361     195.773     319.027
  H     -153.358     194.268     320.595
  H     -154.025     191.917     319.155
  H     -156.485     198.745     313.929
  H     -156.431     192.359     319.767
  H     -158.041     198.092     314.361
  H     -155.303     192.476     321.141
  P     -150.897     193.595     320.325
  C     -151.623     191.843     322.108
  O     -150.673     192.213     321.112
  O     -151.581     194.546     321.417
  O     -149.660     194.212     319.756
  H     -151.210     195.445     321.358
  H     -151.340     190.906     322.540
  H     -152.591     191.752     321.661
  H     -151.651     192.593     322.870

 6  7  8  9  10  11  12  13  14  15  16  26  30  31  32  33  35 0
 6-311+G(2d,p)
 ****
 37  38 0
 6-311+G(2d,p)
 ****
 1  2  3  4  5  17  18  19  20  21  22  23  24  25 0
 3-21G
 ****
 27  28  29  34  36  39  40  41  42  43  44  45  46 0
 3-21G
 ****


