%nproc=1
%NoSave
%Mem=1900MB
#P OB98/GEN NMR

erre ene a

0 1
  C       57.200    -294.658    -491.324
  O       58.240    -294.130    -490.528
  P       58.356    -294.501    -488.972
  C       58.145    -292.031    -488.238
  O       58.971    -293.194    -488.266
  C       58.940    -290.810    -487.768
  O       59.363    -290.975    -486.407
  C       60.206    -290.549    -488.576
  O       59.897    -289.958    -489.821
  C       60.982    -289.655    -487.618
  O       60.552    -288.288    -487.718
  C       60.602    -290.249    -486.238
  N       61.661    -291.088    -485.686
  C       62.125    -290.731    -484.413
  O       61.664    -289.745    -483.842
  N       63.124    -291.487    -483.844
  C       63.630    -292.477    -484.504
  N       64.624    -293.178    -483.893
  C       63.189    -292.872    -485.861
  C       62.212    -292.133    -486.388
  O       59.051    -295.786    -488.669
  O       56.825    -294.477    -488.483
  H       60.985    -287.812    -486.976
  H       56.333    -295.272    -488.803
  H       63.651    -293.697    -486.377
  H       61.826    -292.350    -487.387
  H       60.390    -289.441    -485.519
  H       62.059    -289.675    -487.823
  H       60.755    -291.493    -488.721
  H       58.274    -289.940    -487.819
  H       64.925    -292.858    -482.973
  H       57.325    -292.219    -487.537
  H       65.117    -293.949    -484.332
  H       57.719    -291.869    -489.230
  P       60.522    -290.561    -491.173
  C       60.275    -288.396    -492.530
  O       59.891    -289.755    -492.400
  O       60.473    -292.047    -491.283
  O       62.037    -290.041    -491.146
  H       62.622    -290.777    -491.395
  H       60.057    -288.069    -493.552
  H       61.340    -288.274    -492.332
  H       59.692    -287.786    -491.829
  H       57.297    -294.294    -492.325
  H       56.255    -294.354    -490.924
  H       57.260    -295.726    -491.326

 3  4  5  6  7  8  9  10  11  12  13  23  27  28  29  30  32 0
 6-311+G(2d,p)
 ****
 34  35 0
 6-311+G(2d,p)
 ****
 1  2  14  15  16  17  18  19  20  21  22  24  25  26 0
 3-21G
 ****
 31  33  36  37  38  39  40  41  42  43  44  45  46 0
 3-21G
 ****


