%nproc=1
%NoSave
%Mem=1900MB
#P OB98/GEN NMR

erre ene a

0 1
  C     -392.851    -409.314    -606.000
  O     -391.486    -409.046    -606.290
  P     -390.704    -410.075    -607.234
  C     -388.828    -408.280    -607.143
  O     -389.154    -409.657    -607.179
  C     -387.323    -408.097    -606.952
  O     -386.587    -408.919    -607.870
  C     -386.834    -406.677    -607.221
  O     -387.050    -405.817    -606.105
  C     -385.349    -406.914    -607.430
  O     -384.683    -407.057    -606.163
  C     -385.341    -408.248    -608.188
  N     -382.100    -407.570    -612.021
  C     -381.866    -407.896    -610.703
  N     -380.559    -407.993    -610.339
  N     -382.794    -408.105    -609.810
  C     -384.049    -407.966    -610.307
  C     -384.426    -407.635    -611.600
  C     -383.375    -407.398    -612.568
  O     -383.531    -407.045    -613.733
  N     -385.785    -407.586    -611.734
  C     -386.240    -407.885    -610.530
  N     -385.229    -408.076    -609.621
  O     -391.152    -409.639    -608.704
  O     -390.995    -411.520    -606.963
  H     -385.022    -406.347    -605.586
  H     -390.951    -410.354    -609.343
  H     -381.350    -407.419    -612.661
  H     -387.291    -407.951    -610.265
  H     -384.519    -408.906    -607.858
  H     -384.850    -406.095    -607.961
  H     -379.791    -407.783    -610.958
  H     -387.265    -406.268    -608.138
  H     -380.349    -408.183    -609.362
  H     -387.069    -408.417    -605.935
  H     -389.365    -407.803    -606.314
  H     -389.160    -407.805    -608.082
  P     -387.962    -404.518    -606.356
  C     -388.834    -404.744    -603.916
  O     -388.249    -403.914    -604.902
  O     -389.368    -405.151    -606.797
  O     -387.425    -403.576    -607.371
  H     -389.859    -404.532    -607.359
  H     -388.706    -404.268    -602.937
  H     -388.335    -405.724    -603.895
  H     -389.896    -404.869    -604.116
  H     -393.238    -408.546    -605.363
  H     -392.932    -410.260    -605.507
  H     -393.411    -409.337    -606.911

 3  4  5  6  7  8  9  10  11  12  23  26  30  31 0
 6-311+G(2d,p)
 ****
 33  35  36  37  38 0
 6-311+G(2d,p)
 ****
 1  2  13  14  15  16  17  18  19  20  21  22  24  25 0
 3-21G
 ****
 27  28  29  32  34  39  40  41  42  43  44  45  46  47  48  49 0
 3-21G
 ****


