%nproc=1
%NoSave
%Mem=1900MB
#P OB98/GEN NMR

erre ene a

0 1
  C     -381.697     -87.293     -66.314
  O     -380.722     -86.270     -66.296
  H     -382.615     -86.896     -66.764
  H     -381.919     -87.620     -65.295
  H     -381.350     -88.142     -66.913
  P     -379.290     -86.648     -65.666
  C     -377.851     -85.509     -67.508
  O     -378.274     -85.491     -66.144
  C     -377.017     -84.263     -67.816
  O     -377.906     -83.111     -67.904
  C     -375.955     -83.940     -66.757
  O     -374.784     -83.449     -67.406
  C     -376.592     -82.811     -65.960
  O     -375.620     -82.018     -65.285
  C     -377.348     -82.083     -67.068
  N     -378.330     -77.352     -65.652
  C     -377.188     -77.905     -66.193
  N     -376.134     -77.074     -66.397
  N     -377.079     -79.171     -66.520
  C     -378.212     -79.875     -66.293
  C     -379.401     -79.446     -65.751
  C     -379.502     -78.053     -65.383
  O     -380.470     -77.511     -64.874
  N     -380.305     -80.486     -65.652
  C     -379.655     -81.531     -66.134
  N     -378.386     -81.216     -66.539
  O     -378.829     -87.921     -66.520
  O     -379.283     -86.920     -64.200
  H     -375.191     -81.438     -65.945
  H     -378.265     -88.513     -65.985
  H     -378.354     -76.372     -65.416
  H     -380.060     -82.538     -66.206
  H     -376.688     -81.455     -67.682
  H     -377.284     -83.225     -65.215
  H     -376.155     -76.080     -66.202
  H     -375.689     -84.797     -66.127
  H     -375.291     -77.458     -66.802
  H     -376.562     -84.389     -68.804
  H     -378.738     -85.531     -68.153
  H     -377.249     -86.407     -67.683
  P     -373.557     -84.465     -67.604
  C     -373.315     -83.908     -70.133
  O     -372.681     -83.982     -68.871
  O     -374.273     -85.788     -68.138
  O     -372.781     -84.731     -66.354
  H     -374.268     -86.476     -67.448
  H     -372.611     -83.575     -70.867
  H     -374.131     -83.218     -70.082
  H     -373.683     -84.875     -70.405

 6  7  8  9  10  11  12  13  14  15  26  29  33  34 0
 6-311+G(2d,p)
 ****
 36  38  39  40  41 0
 6-311+G(2d,p)
 ****
 1  2  3  4  5  16  17  18  19  20  21  22  23  24  25 0
 3-21G
 ****
 27  28  30  31  32  35  37  42  43  44  45  46  47 0
 3-21G
 ****
 48  49 0
 3-21G
 ****


