%nproc=1
%NoSave
%Mem=1900MB
#P OB98/GEN NMR

erre ene a

0 1
  C      255.645     400.291     307.842
  O      255.287     400.296     306.452
  P      253.772     400.375     305.942
  C      254.400     402.134     304.162
  O      253.521     401.788     305.229
  C      253.700     402.999     303.109
  O      252.826     402.197     302.293
  C      252.819     404.103     303.676
  O      253.599     405.191     304.151
  C      251.943     404.432     302.469
  O      252.617     405.318     301.565
  C      251.751     403.036     301.831
  N      250.449     402.458     302.137
  C      249.390     402.831     301.298
  O      249.562     403.656     300.406
  N      248.149     402.277     301.527
  C      247.973     401.483     302.535
  N      246.728     400.959     302.699
  C      249.040     401.133     303.491
  C      250.240     401.652     303.230
  O      252.761     400.033     306.990
  O      253.685     399.328     304.733
  H      251.995     405.485     300.830
  H      252.784     398.956     304.693
  H      248.842     400.491     304.334
  H      251.085     401.438     303.874
  H      251.864     403.100     300.741
  H      251.001     404.913     302.749
  H      252.192     403.707     304.484
  H      254.474     403.423     302.455
  H      246.019     401.212     302.026
  H      254.752     401.208     303.691
  H      246.481     400.330     303.450
  H      255.265     402.662     304.574
  P      253.475     405.646     305.680
  C      255.991     406.081     305.988
  O      254.875     405.314     306.396
  O      252.262     405.165     306.403
  O      253.496     407.247     305.600
  H      252.958     407.608     306.333
  H      256.739     406.058     306.781
  H      255.707     407.118     305.787
  H      256.421     405.638     305.081
  H      256.709     400.233     307.936
  H      255.198     399.446     308.322
  H      255.295     401.191     308.304

 3  4  5  6  7  8  9  10  11  12  13  23  27  28  29  30  32 0
 6-311+G(2d,p)
 ****
 34  35 0
 6-311+G(2d,p)
 ****
 1  2  14  15  16  17  18  19  20  21  22  24  25  26 0
 3-21G
 ****
 31  33  36  37  38  39  40  41  42  43  44  45  46 0
 3-21G
 ****


