%nproc=1
%NoSave
%Mem=1900MB
#P OB98/GEN NMR

erre ene a

0 1
  C       19.965      27.054    -133.920
  O       19.197      26.354    -132.958
  P       18.661      24.879    -133.261
  C       16.241      25.561    -133.759
  O       17.098      24.844    -132.879
  C       14.773      25.394    -133.364
  O       14.410      23.989    -133.474
  C       14.440      25.840    -131.931
  O       13.109      26.367    -131.966
  C       14.447      24.528    -131.162
  O       13.723      24.597    -129.941
  C       13.844      23.596    -132.209
  N       12.414      19.411    -129.638
  C       11.934      20.673    -129.640
  N       12.386      21.741    -130.333
  C       13.442      21.400    -131.087
  C       14.063      20.164    -131.170
  C       13.490      19.127    -130.411
  N       13.944      17.827    -130.424
  N       15.158      20.226    -132.011
  C       15.194      21.474    -132.431
  N       14.140      22.206    -131.946
  O       19.469      23.773    -132.668
  O       18.643      24.789    -134.858
  H       12.819      24.912    -130.133
  H       19.382      24.229    -135.165
  H       11.072      20.853    -129.004
  H       15.956      21.900    -133.070
  H       12.755      23.702    -132.276
  H       15.480      24.247    -130.928
  H       15.138      26.573    -131.521
  H       14.162      25.940    -134.088
  H       16.390      25.167    -134.768
  H       13.385      17.138    -129.949
  H       14.563      17.531    -131.181
  H       16.514      26.622    -133.762
  P       12.841      27.885    -131.523
  C       11.671      27.169    -129.357
  O       11.542      27.862    -130.587
  O       12.816      28.879    -132.633
  O       14.031      28.187    -130.483
  H       14.122      29.148    -130.366
  H       11.553      26.091    -129.536
  H       10.886      27.505    -128.673
  H       12.646      27.352    -128.901
  H       20.228      28.017    -133.535
  H       19.392      27.173    -134.816
  H       20.855      26.501    -134.136

 3  4  5  6  7  8  9  10  11  12  22  25  29  30  31  32 0
 6-311+G(2d,p)
 ****
 33  36  37 0
 6-311+G(2d,p)
 ****
 1  2  13  14  15  16  17  18  19  20  21  23  24  26 0
 3-21G
 ****
 27  28  34  35  38  39  40  41  42  43  44  45  46  47  48 0
 3-21G
 ****


