%nproc=1
%NoSave
%Mem=1900MB
#P OB98/GEN NMR

erre ene a

0 1
  C     -107.400      54.617      11.388
  O     -106.270      55.084      10.679
  H     -107.914      53.871      10.777
  H     -108.084      55.447      11.578
  H     -107.103      54.153      12.333
  P     -105.192      55.932      11.513
  C     -104.216      53.896      12.792
  O     -104.928      55.121      12.873
  C     -102.927      53.979      13.602
  O     -103.202      54.435      14.944
  C     -102.186      52.653      13.743
  O     -101.372      52.385      12.609
  C     -101.336      52.935      14.971
  O     -100.208      53.759      14.602
  C     -102.303      53.736      15.852
  N     -102.395      51.467      20.387
  C     -101.372      52.152      19.760
  N     -100.205      52.237      20.433
  N     -101.478      52.700      18.577
  C     -102.695      52.515      18.011
  C     -103.785      51.850      18.529
  C     -103.658      51.265      19.843
  O     -104.537      50.656      20.448
  N     -104.846      51.869      17.662
  C     -104.393      52.524      16.613
  N     -103.092      52.934      16.772
  O     -106.038      57.208      11.988
  O     -103.976      56.341      10.751
  H      -99.583      53.187      14.120
  H     -105.806      57.968      11.421
  H     -102.256      51.055      21.294
  H     -104.964      52.734      15.719
  H     -101.787      54.495      16.452
  H     -100.928      52.026      15.420
  H     -100.047      51.819      21.337
  H     -102.874      51.824      13.954
  H      -99.442      52.737      19.994
  H     -102.282      54.733      13.128
  H     -103.977      53.691      11.743
  H     -104.850      53.091      13.180
  P     -101.044      50.856      12.255
  C     -103.229      50.335      10.958
  O     -102.451      50.092      12.123
  O     -100.443      50.298      13.629
  O     -100.094      50.654      11.125
  H      -99.492      50.107      13.522
  H     -104.132      49.763      11.007
  H     -102.672      50.048      10.091
  H     -103.469      51.376      10.900

 6  7  8  9  10  11  12  13  14  15  26  29  33  34 0
 6-311+G(2d,p)
 ****
 36  38  39  40  41 0
 6-311+G(2d,p)
 ****
 1  2  3  4  5  16  17  18  19  20  21  22  23  24  25 0
 3-21G
 ****
 27  28  30  31  32  35  37  42  43  44  45  46  47 0
 3-21G
 ****
 48  49 0
 3-21G
 ****


