%nproc=1
%NoSave
%Mem=1900MB
#P OB98/GEN NMR

erre ene a

0 1
  C     1104.122      86.496    -203.898
  O     1102.789      86.923    -203.698
  H     1104.174      85.771    -204.716
  H     1104.736      87.369    -204.153
  H     1104.510      86.049    -202.976
  P     1101.707      85.778    -203.413
  C     1099.927      87.433    -204.315
  O     1100.441      86.108    -204.348
  C     1099.619      87.906    -205.739
  O     1100.842      88.259    -206.426
  C     1098.939      86.865    -206.625
  O     1097.549      86.752    -206.353
  C     1099.200      87.454    -208.004
  O     1098.233      88.499    -208.275
  C     1100.596      88.065    -207.843
  N     1105.510      87.917    -209.377
  C     1104.755      88.911    -208.863
  N     1103.458      88.888    -208.492
  C     1102.932      87.663    -208.668
  C     1103.571      86.542    -209.175
  C     1104.927      86.703    -209.546
  N     1105.680      85.681    -210.073
  N     1102.733      85.452    -209.197
  C     1101.593      85.908    -208.726
  N     1101.657      87.238    -208.392
  O     1101.179      86.122    -201.939
  O     1102.220      84.374    -203.503
  H     1097.396      88.062    -208.493
  H     1100.990      85.284    -201.469
  H     1105.260      89.868    -208.734
  H     1100.698      85.308    -208.583
  H     1100.659      89.051    -208.314
  H     1099.113      86.723    -208.810
  H     1099.444      85.890    -206.548
  H     1098.998      88.809    -205.659
  H     1100.669      88.107    -203.872
  H     1106.688      85.795    -210.136
  H     1105.246      84.766    -210.193
  H     1099.017      87.446    -203.712
  P     1096.834      85.357    -206.716
  C     1094.825      86.605    -207.795
  O     1095.885      85.682    -207.974
  O     1095.784      85.166    -205.511
  O     1097.751      84.196    -206.846
  H     1095.583      84.218    -205.393
  H     1094.289      86.715    -208.714
  H     1095.224      87.553    -207.499
  H     1094.162      86.244    -207.036

 6  7  8  9  10  11  12  13  14  15  25  28  32  33  34  35 0
 6-311+G(2d,p)
 ****
 36  39  40 0
 6-311+G(2d,p)
 ****
 1  2  3  4  5  16  17  18  19  20  21  22  23  24 0
 3-21G
 ****
 26  27  29  30  31  37  38  41  42  43  44  45  46  47  48 0
 3-21G
 ****


