%nproc=1
%NoSave
%Mem=1900MB
#P OB98/GEN NMR

erre ene a

0 1
  C     -219.559      24.172      48.418
  O     -219.428      23.728      47.083
  H     -218.567      24.423      48.803
  H     -219.988      23.382      49.040
  H     -220.189      25.064      48.458
  P     -220.768      23.251      46.343
  C     -220.396      20.847      47.255
  O     -220.631      21.669      46.119
  C     -219.496      19.679      46.863
  O     -219.255      18.838      48.015
  C     -220.094      18.760      45.807
  O     -219.989      19.302      44.502
  C     -219.247      17.513      45.999
  O     -218.005      17.604      45.283
  C     -219.009      17.504      47.526
  N     -219.833      16.509      48.205
  C     -219.369      15.199      48.148
  O     -218.334      14.875      47.565
  N     -220.158      14.258      48.752
  C     -221.356      14.491      49.360
  O     -222.051      13.592      49.818
  C     -221.791      15.898      49.405
  C     -221.026      16.828      48.825
  O     -220.606      23.859      44.871
  O     -222.039      23.683      46.996
  H     -221.164      24.655      44.777
  H     -217.474      16.831      45.558
  H     -219.844      13.301      48.710
  H     -222.735      16.118      49.887
  H     -221.334      17.868      48.828
  H     -217.957      17.277      47.746
  H     -219.757      16.622      45.633
  H     -221.136      18.521      46.056
  H     -218.532      20.083      46.524
  H     -221.350      20.454      47.625
  H     -219.934      21.450      48.043
  P     -221.335      19.556      43.669
  C     -221.135      17.409      42.166
  O     -221.144      18.822      42.254
  O     -221.195      21.111      43.322
  O     -222.577      19.183      44.403
  H     -220.275      21.381      43.156
  H     -220.997      17.116      41.146
  H     -222.066      17.023      42.525
  H     -220.335      17.020      42.760

 6  7  8  9  10  11  12  13  14  15  16  27  31  32  33  34  35 0
 6-311+G(2d,p)
 ****
 36  37 0
 6-311+G(2d,p)
 ****
 1  2  3  4  5  17  18  19  20  21  22  23  24  25 0
 3-21G
 ****
 26  28  29  30  38  39  40  41  42  43  44  45 0
 3-21G
 ****


