%nproc=1
%NoSave
%Mem=1900MB
#P OB98/GEN NMR

erre ene a

0 1
  C     -592.286     277.141     226.268
  O     -593.557     276.739     226.785
  P     -594.468     277.884     227.436
  C     -596.541     277.481     225.911
  O     -596.007     277.476     227.234
  C     -597.370     276.219     225.675
  O     -596.543     275.042     225.570
  C     -598.351     275.920     226.797
  O     -599.458     276.799     226.753
  C     -598.679     274.459     226.521
  O     -599.641     274.363     225.453
  C     -597.315     273.923     226.034
  N     -596.268     269.339     228.073
  C     -597.060     269.708     227.030
  N     -597.284     270.943     226.555
  C     -596.597     271.866     227.263
  C     -595.759     271.636     228.342
  C     -595.607     270.303     228.753
  N     -594.824     269.928     229.824
  N     -595.236     272.828     228.805
  C     -595.763     273.757     228.036
  N     -596.583     273.225     227.084
  O     -594.268     279.126     226.446
  O     -594.083     278.231     228.837
  H     -599.799     273.406     225.302
  H     -593.727     279.811     226.878
  H     -597.561     268.904     226.524
  H     -595.588     274.820     228.131
  H     -597.427     273.216     225.199
  H     -599.092     273.931     227.384
  H     -597.850     276.011     227.782
  H     -597.918     276.354     224.731
  H     -595.724     277.534     225.179
  H     -594.837     268.958     230.102
  H     -594.398     270.649     230.390
  H     -597.142     278.380     225.773
  P     -600.442     276.837     228.021
  C     -599.803     279.284     228.493
  O     -600.849     278.388     228.160
  O     -599.418     276.643     229.230
  O     -601.576     275.871     227.976
  H     -598.624     277.206     229.121
  H     -600.204     280.300     228.516
  H     -599.001     279.222     227.761
  H     -599.408     279.038     229.495
  H     -591.780     276.289     225.864
  H     -591.699     277.565     227.055
  H     -592.429     277.870     225.498

 3  4  5  6  7  8  9  10  11  12  22  25  29  30  31  32 0
 6-311+G(2d,p)
 ****
 33  36  37 0
 6-311+G(2d,p)
 ****
 1  2  13  14  15  16  17  18  19  20  21  23  24  26 0
 3-21G
 ****
 27  28  34  35  38  39  40  41  42  43  44  45  46  47  48 0
 3-21G
 ****


