%nproc=1
%NoSave
%Mem=1900MB
#P OB98/GEN NMR

erre ene a

0 1
  C      301.063     832.342    -118.839
  O      301.931     831.585    -119.684
  P      301.960     830.001    -119.423
  C      300.233     829.093    -121.139
  O      300.510     829.404    -119.783
  C      299.904     827.598    -121.298
  O      301.098     826.784    -121.400
  C      299.102     827.047    -120.129
  O      297.740     827.385    -120.262
  C      299.360     825.537    -120.277
  O      298.457     824.948    -121.234
  C      300.809     825.502    -120.800
  N      302.987     821.832    -118.059
  C      301.874     821.783    -118.878
  N      301.278     820.567    -119.021
  N      301.400     822.826    -119.517
  C      302.096     823.951    -119.285
  C      303.239     824.118    -118.528
  C      303.753     822.969    -117.816
  O      304.748     822.958    -117.104
  N      303.698     825.411    -118.595
  C      302.769     826.053    -119.296
  N      301.827     825.201    -119.797
  O      302.043     829.890    -117.823
  O      303.116     829.313    -120.091
  H      297.535     825.049    -120.915
  H      302.937     829.556    -117.576
  H      303.317     821.001    -117.583
  H      302.765     827.116    -119.498
  H      300.923     824.743    -121.585
  H      299.201     825.011    -119.327
  H      301.605     819.731    -118.553
  H      299.522     827.406    -119.178
  H      300.466     820.518    -119.619
  H      299.332     827.487    -122.233
  H      301.088     829.343    -121.758
  H      299.401     829.723    -121.485
  P      296.819     827.326    -118.950
  C      296.203     829.824    -119.342
  O      296.627     828.834    -118.437
  O      297.775     826.654    -117.859
  O      295.548     826.555    -119.113
  H      297.283     825.986    -117.358
  H      295.651     830.587    -118.812
  H      295.573     829.412    -120.138
  H      297.093     830.293    -119.801
  H      301.124     833.378    -119.101
  H      301.358     832.214    -117.818
  H      300.057     832.001    -118.965

 3  4  5  6  7  8  9  10  11  12  23  26  30  31 0
 6-311+G(2d,p)
 ****
 33  35  36  37  38 0
 6-311+G(2d,p)
 ****
 1  2  13  14  15  16  17  18  19  20  21  22  24  25 0
 3-21G
 ****
 27  28  29  32  34  39  40  41  42  43  44  45  46  47  48  49 0
 3-21G
 ****


