%nproc=1
%NoSave
%Mem=1900MB
#P OB98/GEN NMR

erre ene a

0 1
  C      -88.595     150.602     268.196
  O      -87.269     150.142     268.348
  H      -88.652     151.637     268.532
  H      -89.272     149.994     268.803
  H      -88.899     150.553     267.144
  P      -86.935     148.672     267.799
  C      -87.359     147.136     269.863
  O      -87.858     147.660     268.640
  C      -88.487     146.442     270.628
  O      -88.949     145.301     269.851
  C      -88.054     145.911     272.002
  O      -89.135     146.071     272.926
  C      -87.811     144.436     271.742
  O      -87.906     143.627     272.911
  C      -88.890     144.140     270.700
  N      -88.600     142.937     269.917
  C      -88.805     141.709     270.530
  O      -89.276     141.553     271.654
  N      -88.431     140.610     269.789
  C      -87.867     140.626     268.548
  O      -87.538     139.613     267.950
  C      -87.672     141.959     267.953
  C      -88.037     143.035     268.655
  O      -85.467     148.388     268.374
  O      -87.015     148.499     266.320
  H      -84.788     148.684     267.739
  H      -87.769     142.693     272.643
  H      -88.572     139.708     270.225
  H      -87.226     142.013     266.970
  H      -87.896     144.033     268.251
  H      -89.868     144.038     271.185
  H      -86.809     144.292     271.316
  H      -87.166     146.414     272.391
  H      -89.337     147.133     270.720
  H      -86.964     147.953     270.470
  H      -86.554     146.427     269.649
  P      -89.036     147.281     273.979
  C      -87.664     145.836     275.673
  O      -87.723     146.993     274.858
  O      -90.253     146.951     274.961
  O      -89.090     148.623     273.325
  H      -90.383     145.999     275.116
  H      -86.724     145.806     276.183
  H      -87.766     144.964     275.062
  H      -88.458     145.864     276.390

 6  7  8  9  10  11  12  13  14  15  16  27  31  32  33  34  35 0
 6-311+G(2d,p)
 ****
 36  37 0
 6-311+G(2d,p)
 ****
 1  2  3  4  5  17  18  19  20  21  22  23  24  25 0
 3-21G
 ****
 26  28  29  30  38  39  40  41  42  43  44  45 0
 3-21G
 ****


