%nproc=1
%NoSave
%Mem=1900MB
#P OB98/GEN NMR

erre ene a

0 1
  C      296.418    -403.014      17.920
  O      295.237    -403.687      18.325
  P      294.174    -404.284      17.307
  C      292.505    -403.315      15.551
  O      293.670    -403.094      16.336
  C      291.520    -402.129      15.597
  O      292.205    -400.912      15.204
  C      290.406    -402.344      14.566
  O      289.273    -403.137      14.897
  C      290.061    -400.933      14.055
  O      288.925    -400.374      14.702
  C      291.328    -400.135      14.386
  N      291.750    -396.574      10.798
  C      291.043    -396.531      11.988
  N      290.217    -395.481      12.150
  N      291.146    -397.437      12.920
  C      291.941    -398.474      12.577
  C      292.710    -398.629      11.429
  C      292.617    -397.587      10.444
  O      293.147    -397.637       9.326
  N      293.341    -399.839      11.401
  C      292.937    -400.448      12.494
  N      292.060    -399.676      13.218
  O      293.162    -405.232      17.855
  O      295.127    -405.126      16.300
  H      288.137    -400.880      14.427
  H      294.629    -405.928      16.010
  H      291.567    -395.877      10.093
  H      293.223    -401.457      12.786
  H      291.065    -399.242      14.966
  H      289.829    -400.967      12.983
  H      289.997    -394.845      11.395
  H      290.854    -402.855      13.706
  H      289.562    -395.494      12.928
  H      291.167    -401.958      16.617
  H      292.028    -404.231      15.928
  H      292.795    -403.502      14.518
  P      288.410    -404.023      13.890
  C      286.538    -403.679      12.156
  O      287.386    -403.066      13.122
  O      287.449    -404.890      14.838
  O      289.209    -404.926      12.994
  H      287.146    -405.681      14.368
  H      286.132    -402.920      11.504
  H      285.730    -404.208      12.671
  H      287.125    -404.397      11.550
  H      296.968    -402.707      18.785
  H      296.157    -402.154      17.340
  H      297.020    -403.673      17.330

 3  4  5  6  7  8  9  10  11  12  23  26  30  31 0
 6-311+G(2d,p)
 ****
 33  35  36  37  38 0
 6-311+G(2d,p)
 ****
 1  2  13  14  15  16  17  18  19  20  21  22  24  25 0
 3-21G
 ****
 27  28  29  32  34  39  40  41  42  43  44  45  46  47  48  49 0
 3-21G
 ****


