%nproc=1
%NoSave
%Mem=1900MB
#P OB98/GEN NMR

erre ene a

0 1
  C      207.430     -94.708    -237.187
  O      207.226     -93.398    -237.747
  P      205.813     -92.664    -237.524
  C      205.855     -91.892    -240.026
  O      205.627     -91.552    -238.666
  C      206.423     -90.686    -240.781
  O      207.831     -90.524    -240.489
  C      206.342     -90.801    -242.299
  O      205.035     -90.548    -242.778
  C      207.362     -89.753    -242.734
  O      206.777     -88.435    -242.733
  C      208.434     -89.873    -241.633
  N      209.626     -90.586    -242.086
  C      210.530     -89.858    -242.851
  O      210.336     -88.695    -243.197
  N      211.658     -90.526    -243.241
  C      211.935     -91.846    -243.005
  O      212.959     -92.394    -243.400
  C      210.904     -92.583    -242.257
  C      209.814     -91.935    -241.845
  O      206.105     -91.763    -236.228
  O      204.645     -93.564    -237.287
  H      205.985     -88.482    -243.299
  H      205.277     -91.620    -235.735
  H      212.340     -90.008    -243.772
  H      211.075     -93.638    -242.070
  H      209.045     -92.469    -241.292
  H      208.734     -88.877    -241.287
  H      207.740     -89.933    -243.744
  H      206.688     -91.791    -242.615
  H      205.899     -89.787    -240.434
  H      204.909     -92.191    -240.489
  H      206.551     -92.737    -240.069
  P      204.418     -91.637    -243.789
  C      202.773     -90.002    -245.003
  O      202.946     -91.103    -244.136
  O      204.186     -92.874    -242.800
  O      205.307     -91.923    -244.954
  H      203.955     -92.588    -241.901
  H      203.545     -89.973    -245.777
  H      202.810     -89.075    -244.426
  H      201.793     -90.081    -245.485
  H      208.416     -95.049    -237.427
  H      206.709     -95.386    -237.594
  H      207.317     -94.663    -236.124

 3  4  5  6  7  8  9  10  11  12  13  23  28  29  30  31  32 0
 6-311+G(2d,p)
 ****
 33  34 0
 6-311+G(2d,p)
 ****
 1  2  14  15  16  17  18  19  20  21  22  24  25  26 0
 3-21G
 ****
 27  35  36  37  38  39  40  41  42  43  44  45 0
 3-21G
 ****


