%nproc=1
%NoSave
%Mem=1900MB
#P OB98/GEN NMR

erre ene a

0 1
  C      -76.819    -317.633    -145.585
  O      -77.342    -318.934    -145.442
  H      -75.954    -317.529    -144.925
  H      -77.575    -316.900    -145.292
  H      -76.500    -317.439    -146.613
  P      -78.297    -319.510    -146.588
  C      -78.499    -321.822    -145.458
  O      -79.192    -320.682    -145.952
  C      -79.455    -322.843    -144.843
  O      -80.026    -322.304    -143.632
  C      -80.625    -323.185    -145.770
  O      -80.360    -324.228    -146.692
  C      -81.707    -323.594    -144.774
  O      -81.627    -324.995    -144.463
  C      -81.387    -322.749    -143.534
  N      -85.778    -320.943    -141.639
  C      -85.338    -322.252    -141.710
  N      -86.194    -323.189    -141.251
  N      -84.175    -322.593    -142.201
  C      -83.474    -321.558    -142.712
  C      -83.815    -320.223    -142.717
  C      -85.070    -319.845    -142.104
  O      -85.497    -318.699    -142.001
  N      -82.868    -319.463    -143.362
  C      -82.004    -320.348    -143.816
  N      -82.285    -321.621    -143.380
  O      -77.291    -320.322    -147.538
  O      -79.052    -318.482    -147.375
  H      -80.691    -325.212    -144.286
  H      -77.613    -320.290    -148.457
  H      -86.668    -320.737    -141.224
  H      -81.139    -320.118    -144.426
  H      -81.463    -323.344    -142.616
  H      -82.704    -323.423    -145.187
  H      -87.131    -322.990    -140.943
  H      -80.972    -322.293    -146.301
  H      -85.990    -324.170    -141.458
  H      -78.892    -323.741    -144.560
  H      -77.802    -321.458    -144.702
  H      -77.908    -322.283    -146.256
  P      -80.850    -324.127    -148.209
  C      -80.776    -326.722    -148.602
  O      -81.514    -325.519    -148.619
  O      -79.479    -324.115    -149.032
  O      -81.706    -322.948    -148.530
  H      -79.232    -323.204    -149.278
  H      -81.405    -327.531    -148.909
  H      -80.417    -326.906    -147.611
  H      -79.946    -326.641    -149.273

 6  7  8  9  10  11  12  13  14  15  26  29  33  34 0
 6-311+G(2d,p)
 ****
 36  38  39  40  41 0
 6-311+G(2d,p)
 ****
 1  2  3  4  5  16  17  18  19  20  21  22  23  24  25 0
 3-21G
 ****
 27  28  30  31  32  35  37  42  43  44  45  46  47 0
 3-21G
 ****
 48  49 0
 3-21G
 ****


