%nproc=1
%NoSave
%Mem=1900MB
#P OB98/GEN NMR

erre ene a

0 1
  C       94.019      76.338      12.049
  O       94.841      77.185      11.272
  H       92.977      76.438      11.738
  H       94.335      75.303      11.896
  H       94.118      76.584      13.109
  P       94.517      78.755      11.350
  C       94.414      79.061       8.783
  O       95.073      79.410       9.991
  C       94.065      80.320       7.995
  O       93.177      81.132       8.809
  C       95.282      81.180       7.613
  O       95.252      81.503       6.218
  C       95.098      82.458       8.411
  O       95.564      83.613       7.723
  C       93.593      82.493       8.642
  N       92.680      87.231      10.284
  C       92.633      86.691       9.048
  N       92.792      85.401       8.689
  C       92.989      84.629       9.771
  C       93.038      85.032      11.095
  C       92.893      86.409      11.336
  N       92.996      86.968      12.592
  N       93.265      83.954      11.929
  C       93.395      82.923      11.118
  N       93.251      83.285       9.805
  O       95.536      79.284      12.469
  O       93.105      79.081      11.697
  H       95.389      84.382       8.296
  H       95.022      79.657      13.210
  H       92.450      87.389       8.235
  H       93.637      81.912      11.420
  H       93.058      82.904       7.777
  H       95.646      82.370       9.356
  H       96.232      80.693       7.852
  H       93.504      80.031       7.098
  H       93.491      78.517       9.012
  H       92.997      87.972      12.659
  H       93.266      86.372      13.362
  H       95.069      78.410       8.193
  P       96.133      80.565       5.253
  C       98.067      81.970       4.237
  O       96.739      81.486       4.083
  O       95.033      79.669       4.513
  O       97.125      79.720       5.979
  H       95.224      78.722       4.655
  H       98.331      82.564       3.387
  H       98.741      81.143       4.318
  H       98.128      82.568       5.122

 6  7  8  9  10  11  12  13  14  15  25  28  32  33  34  35 0
 6-311+G(2d,p)
 ****
 36  39  40 0
 6-311+G(2d,p)
 ****
 1  2  3  4  5  16  17  18  19  20  21  22  23  24 0
 3-21G
 ****
 26  27  29  30  31  37  38  41  42  43  44  45  46  47  48 0
 3-21G
 ****


