%nproc=1
%NoSave
%Mem=1900MB
#P OB98/GEN NMR

erre ene a

0 1
  C       17.449      13.518     -31.062
  O       17.533      12.239     -30.470
  H       17.867      14.254     -30.370
  H       16.403      13.774     -31.252
  H       18.015      13.558     -31.996
  P       17.239      10.948     -31.372
  C       19.717      10.239     -31.269
  O       18.371       9.869     -31.010
  C       20.685       9.273     -30.581
  O       20.656       9.531     -29.144
  C       20.338       7.784     -30.786
  O       21.572       7.056     -30.795
  C       19.542       7.496     -29.527
  O       19.377       6.118     -29.317
  C       20.379       8.269     -28.505
  N       19.710       8.455     -27.224
  C       19.940       7.502     -26.238
  O       20.686       6.535     -26.379
  N       19.265       7.690     -25.061
  C       18.401       8.708     -24.787
  O       17.839       8.840     -23.707
  C       18.176       9.668     -25.879
  C       18.831       9.501     -27.029
  O       17.053      11.203     -32.829
  O       15.923      10.318     -30.712
  H       15.137      10.600     -31.217
  H       20.240       5.695     -29.117
  H       19.420       7.008     -24.335
  H       17.480      10.476     -25.700
  H       18.689      10.187     -27.858
  H       21.342       7.774     -28.339
  H       18.539       7.923     -29.607
  H       19.794       7.597     -31.715
  H       21.705       9.491     -30.922
  H       19.872      11.253     -30.887
  H       19.890      10.235     -32.350
  P       22.048       6.144     -32.028
  C       24.551       6.700     -31.755
  O       23.566       5.678     -31.791
  O       21.827       6.780     -33.363
  O       21.206       4.788     -31.907
  H       20.993       4.462     -32.802
  H       25.514       6.262     -31.592
  H       24.330       7.381     -30.960
  H       24.552       7.227     -32.686

 6  7  8  9  10  11  12  13  14  15  16  27  31  32  33  34  35 0
 6-311+G(2d,p)
 ****
 36  37 0
 6-311+G(2d,p)
 ****
 1  2  3  4  5  17  18  19  20  21  22  23  24  25 0
 3-21G
 ****
 26  28  29  30  38  39  40  41  42  43  44  45 0
 3-21G
 ****


