%nproc=1
%NoSave
%Mem=1900MB
#P OB98/GEN NMR

erre ene a

0 1
  C      889.129     596.181    -253.919
  O      890.224     596.608    -253.139
  H      888.645     595.340    -253.413
  H      889.472     595.853    -254.902
  H      888.405     596.995    -254.034
  P      890.994     597.939    -253.608
  C      890.921     599.458    -251.506
  O      890.359     599.160    -252.777
  C      890.499     600.856    -251.055
  O      891.276     601.847    -251.778
  C      889.021     601.149    -251.293
  O      888.511     601.930    -250.186
  C      889.011     602.014    -252.542
  O      887.866     602.858    -252.641
  C      890.351     602.766    -252.407
  N      890.854     603.216    -253.698
  C      890.223     604.355    -254.243
  O      889.300     604.895    -253.644
  N      890.612     604.789    -255.481
  C      891.483     604.097    -256.173
  N      891.801     604.572    -257.406
  C      892.117     602.865    -255.657
  C      891.756     602.481    -254.434
  O      890.437     598.188    -255.090
  O      892.491     597.871    -253.551
  H      888.084     603.602    -253.253
  H      891.126     598.600    -255.654
  H      892.811     602.330    -256.275
  H      892.161     601.589    -253.979
  H      890.240     603.628    -251.737
  H      889.036     601.368    -253.438
  H      888.400     600.251    -251.402
  H      890.753     600.967    -249.986
  H      891.340     605.407    -257.720
  H      892.017     599.434    -251.584
  H      892.437     604.100    -258.037
  H      890.604     598.699    -250.765
  P      887.862     601.116    -248.991
  C      890.005     601.406    -247.519
  O      889.067     600.495    -248.082
  O      887.229     599.821    -249.679
  O      886.835     601.874    -248.221
  H      886.255     599.894    -249.704
  H      890.733     600.864    -246.953
  H      889.494     602.093    -246.878
  H      890.493     601.946    -248.304

 6  7  8  9  10  11  12  13  14  15  16  26  30  31  32  33  35 0
 6-311+G(2d,p)
 ****
 37  38 0
 6-311+G(2d,p)
 ****
 1  2  3  4  5  17  18  19  20  21  22  23  24  25 0
 3-21G
 ****
 27  28  29  34  36  39  40  41  42  43  44  45  46 0
 3-21G
 ****


