%nproc=1
%NoSave
%Mem=1900MB
#P OB98/GEN NMR

erre ene a

0 1
  C      179.258     -77.964     310.555
  O      178.898     -76.573     310.473
  P      177.402     -76.127     310.869
  C      178.093     -74.549     312.840
  O      177.379     -75.706     312.418
  C      177.991     -74.397     314.359
  O      178.586     -75.532     315.028
  C      178.716     -73.182     314.919
  O      177.992     -71.986     314.697
  C      178.838     -73.552     316.394
  O      177.626     -73.244     317.104
  C      179.053     -75.080     316.317
  N      180.440     -75.468     316.552
  C      180.736     -75.968     317.816
  O      179.908     -76.039     318.725
  N      182.033     -76.357     318.017
  C      183.056     -76.232     317.123
  O      184.205     -76.580     317.364
  C      182.701     -75.618     315.830
  C      181.431     -75.264     315.614
  O      176.634     -77.535     310.900
  O      176.737     -75.179     309.920
  H      177.743     -73.578     318.013
  H      175.689     -77.397     310.690
  H      182.261     -76.754     318.918
  H      183.489     -75.479     315.104
  H      181.155     -74.809     314.666
  H      178.421     -75.584     317.058
  H      179.650     -73.017     316.893
  H      179.721     -73.115     314.482
  H      176.928     -74.367     314.630
  H      177.659     -73.666     312.361
  H      179.138     -74.641     312.526
  P      178.353     -71.155     313.367
  C      176.084     -71.842     312.267
  O      177.494     -71.834     312.198
  O      179.862     -71.634     313.110
  O      178.191     -69.678     313.535
  H      180.002     -72.561     313.386
  H      175.698     -70.943     312.757
  H      175.754     -72.728     312.818
  H      175.686     -71.891     311.249
  H      180.279     -78.086     310.260
  H      178.628     -78.534     309.905
  H      179.135     -78.306     311.561

 3  4  5  6  7  8  9  10  11  12  13  23  28  29  30  31  32 0
 6-311+G(2d,p)
 ****
 33  34 0
 6-311+G(2d,p)
 ****
 1  2  14  15  16  17  18  19  20  21  22  24  25  26 0
 3-21G
 ****
 27  35  36  37  38  39  40  41  42  43  44  45 0
 3-21G
 ****


