%nproc=1
%NoSave
%Mem=1900MB
#P OB98/GEN NMR

erre ene a

0 1
  C      -19.705     458.003     649.021
  O      -20.589     458.560     649.985
  P      -22.158     458.323     649.781
  C      -24.180     459.326     651.097
  O      -22.887     458.741     651.148
  C      -24.618     459.728     652.503
  O      -24.848     458.558     653.319
  C      -23.576     460.554     653.256
  O      -23.586     461.909     652.836
  C      -24.025     460.359     654.698
  O      -25.078     461.276     655.045
  C      -24.548     458.913     654.684
  N      -23.609     457.970     655.295
  C      -23.645     457.889     656.685
  O      -24.398     458.575     657.371
  N      -22.759     457.021     657.258
  C      -21.820     456.277     656.596
  O      -21.017     455.555     657.175
  C      -21.810     456.428     655.136
  C      -22.682     457.260     654.561
  O      -22.301     456.721     649.757
  O      -22.730     458.952     648.555
  H      -25.449     460.963     655.893
  H      -23.014     456.466     649.129
  H      -22.786     456.920     658.254
  H      -21.079     455.852     654.574
  H      -22.679     457.389     653.483
  H      -25.496     458.850     655.236
  H      -23.208     460.538     655.408
  H      -22.587     460.108     653.122
  H      -25.564     460.283     652.425
  H      -24.885     458.595     650.684
  H      -24.158     460.198     650.432
  P      -22.505     462.887     653.511
  C      -21.703     465.284     652.858
  O      -22.292     464.068     652.444
  O      -21.183     461.981     653.412
  O      -22.877     463.296     654.893
  H      -21.186     461.414     652.620
  H      -20.928     465.123     653.608
  H      -22.478     465.946     653.252
  H      -21.245     465.760     651.981
  H      -18.695     458.240     649.284
  H      -19.927     458.410     648.056
  H      -19.827     456.940     648.997

 3  4  5  6  7  8  9  10  11  12  13  23  28  29  30  31  32 0
 6-311+G(2d,p)
 ****
 33  34 0
 6-311+G(2d,p)
 ****
 1  2  14  15  16  17  18  19  20  21  22  24  25  26 0
 3-21G
 ****
 27  35  36  37  38  39  40  41  42  43  44  45 0
 3-21G
 ****


