%nproc=1
%NoSave
%Mem=1900MB
#P OB98/GEN NMR

erre ene a

0 1
  C      -67.074       8.290      64.631
  O      -66.611       7.186      63.884
  H      -66.638       8.242      65.631
  H      -68.163       8.246      64.720
  H      -66.780       9.234      64.166
  P      -66.831       7.179      62.299
  C      -66.515       4.646      61.921
  O      -65.989       5.948      61.711
  C      -65.440       3.579      61.681
  O      -64.928       3.723      60.331
  C      -64.251       3.758      62.630
  O      -63.584       2.526      62.893
  C      -63.322       4.663      61.836
  O      -61.960       4.572      62.253
  C      -63.565       4.172      60.411
  N      -61.498       5.274      55.885
  C      -61.351       4.140      56.659
  N      -60.550       3.171      56.158
  N      -61.918       3.981      57.826
  C      -62.631       5.058      58.232
  C      -62.831       6.245      57.566
  C      -62.226       6.396      56.260
  O      -62.305       7.388      55.543
  N      -63.606       7.107      58.301
  C      -63.871       6.447      59.409
  N      -63.322       5.188      59.405
  O      -65.988       8.445      61.796
  O      -68.257       7.253      61.844
  H      -61.897       4.982      63.136
  H      -66.314       8.747      60.930
  H      -61.063       5.334      54.982
  H      -64.463       6.824      60.233
  H      -62.917       3.318      60.180
  H      -63.638       5.698      61.991
  H      -59.946       3.338      55.367
  H      -64.531       4.217      63.574
  H      -60.187       2.491      56.831
  H      -65.881       2.579      61.747
  H      -67.344       4.520      61.221
  H      -66.926       4.560      62.928
  P      -64.400       1.353      63.615
  C      -62.836      -0.291      64.976
  O      -63.473       0.063      63.769
  O      -65.484       0.918      62.526
  O      -65.035       1.751      64.911
  H      -66.385       1.112      62.846
  H      -62.273      -1.189      64.832
  H      -63.573      -0.450      65.735
  H      -62.178       0.498      65.277

 6  7  8  9  10  11  12  13  14  15  26  29  33  34 0
 6-311+G(2d,p)
 ****
 36  38  39  40  41 0
 6-311+G(2d,p)
 ****
 1  2  3  4  5  16  17  18  19  20  21  22  23  24  25 0
 3-21G
 ****
 27  28  30  31  32  35  37  42  43  44  45  46  47 0
 3-21G
 ****
 48  49 0
 3-21G
 ****


