%nproc=1
%NoSave
%Mem=1900MB
#P OB98/GEN NMR

erre ene a

0 1
  C        3.926    -145.742     286.288
  O        2.600    -145.495     285.871
  H        4.538    -144.873     286.038
  H        4.323    -146.614     285.762
  H        3.978    -145.907     287.367
  P        1.434    -146.455     286.397
  C        1.564    -145.595     288.827
  O        0.763    -145.734     287.663
  C        0.709    -145.729     290.095
  O        1.582    -145.987     291.224
  C       -0.047    -144.433     290.401
  O       -1.258    -144.675     291.112
  C        0.918    -143.688     291.308
  O        0.277    -142.716     292.131
  C        1.550    -144.838     292.088
  N        4.496    -143.714     296.093
  C        3.119    -143.746     296.004
  N        2.438    -143.444     297.135
  N        2.469    -144.029     294.906
  C        3.277    -144.241     293.839
  C        4.653    -144.214     293.797
  C        5.361    -143.934     295.028
  O        6.579    -143.870     295.156
  N        5.120    -144.469     292.531
  C        4.031    -144.647     291.809
  N        2.888    -144.542     292.564
  O        2.225    -147.674     287.074
  O        0.473    -146.937     285.353
  H       -0.323    -143.193     292.733
  H        1.658    -148.464     287.115
  H        4.947    -143.520     296.970
  H        4.017    -144.866     290.750
  H        0.939    -145.094     292.962
  H        1.636    -143.155     290.679
  H        2.894    -143.033     297.934
  H       -0.270    -143.855     289.508
  H        1.462    -143.160     297.012
  H        0.041    -146.594     290.007
  H        2.027    -144.607     288.779
  H        2.368    -146.332     288.825
  P       -2.624    -144.792     290.283
  C       -2.784    -147.428     290.100
  O       -3.310    -146.205     290.566
  O       -2.138    -144.901     288.765
  O       -3.569    -143.651     290.488
  H       -2.435    -144.124     288.256
  H       -3.417    -148.231     290.415
  H       -1.802    -147.569     290.500
  H       -2.735    -147.411     289.031

 6  7  8  9  10  11  12  13  14  15  26  29  33  34 0
 6-311+G(2d,p)
 ****
 36  38  39  40  41 0
 6-311+G(2d,p)
 ****
 1  2  3  4  5  16  17  18  19  20  21  22  23  24  25 0
 3-21G
 ****
 27  28  30  31  32  35  37  42  43  44  45  46  47 0
 3-21G
 ****
 48  49 0
 3-21G
 ****


