%nproc=1
%NoSave
%Mem=1900MB
#P OB98/GEN NMR

erre ene a

0 1
  C      451.360     -62.722     -77.237
  O      450.012     -62.570     -76.837
  H      452.008     -62.520     -76.378
  H      451.606     -62.018     -78.039
  H      451.535     -63.749     -77.578
  P      448.898     -62.790     -77.970
  C      448.446     -60.307     -78.497
  O      449.052     -61.517     -78.936
  C      448.162     -59.383     -79.687
  O      449.414     -59.089     -80.358
  C      447.214     -60.006     -80.721
  O      446.351     -58.986     -81.230
  C      448.144     -60.470     -81.827
  O      447.508     -60.552     -83.097
  C      449.273     -59.434     -81.748
  N      452.338     -59.507     -85.829
  C      451.228     -58.795     -85.541
  N      450.479     -58.823     -84.423
  C      451.011     -59.671     -83.517
  C      452.136     -60.467     -83.658
  C      452.818     -60.371     -84.890
  N      453.936     -61.110     -85.198
  N      452.342     -61.235     -82.525
  C      451.355     -60.890     -81.701
  N      450.520     -59.958     -82.269
  O      447.513     -63.046     -77.470
  O      449.541     -63.969     -78.840
  H      446.859     -61.289     -83.074
  H      450.491     -63.815     -79.000
  H      450.892     -58.116     -86.326
  H      451.205     -61.299     -80.708
  H      449.038     -58.526     -82.319
  H      448.532     -61.476     -81.578
  H      446.622     -60.825     -80.317
  H      447.771     -58.437     -79.312
  H      449.109     -59.788     -77.783
  H      454.372     -60.968     -86.091
  H      454.315     -61.740     -84.503
  H      447.518     -60.568     -77.986
  P      444.860     -58.883     -80.637
  C      443.154     -60.005     -82.234
  O      444.023     -60.176     -81.113
  O      444.179     -57.571     -80.831
  O      445.094     -59.188     -79.079
  H      444.490     -58.619     -78.554
  H      442.661     -60.930     -82.447
  H      443.726     -59.701     -83.086
  H      442.425     -59.255     -82.009

 6  7  8  9  10  11  12  13  14  15  25  28  32  33  34  35 0
 6-311+G(2d,p)
 ****
 36  39  40 0
 6-311+G(2d,p)
 ****
 1  2  3  4  5  16  17  18  19  20  21  22  23  24 0
 3-21G
 ****
 26  27  29  30  31  37  38  41  42  43  44  45  46  47 0
 3-21G
 ****
 48 0
 3-21G
 ****


