%nproc=1
%NoSave
%Mem=1900MB
#P OB98/GEN NMR

erre ene a

0 1
  C       88.029      69.573    -308.127
  O       88.287      69.511    -309.514
  H       87.070      69.088    -307.928
  H       87.972      70.614    -307.802
  H       88.811      69.048    -307.572
  P       89.671      70.147    -310.032
  C       88.192      72.210    -310.610
  O       89.414      71.735    -310.057
  C       87.999      73.694    -310.282
  O       87.942      73.857    -308.846
  C       89.129      74.583    -310.811
  O       88.568      75.771    -311.376
  C       89.951      74.910    -309.578
  O       90.658      76.143    -309.708
  C       88.892      74.872    -308.467
  N       89.487      74.584    -307.163
  C       89.922      75.680    -306.409
  O       89.812      76.824    -306.861
  N       90.521      75.459    -305.196
  C       90.722      74.244    -304.791
  N       91.339      74.089    -303.590
  C       90.324      73.054    -305.572
  C       89.712      73.293    -306.731
  O       89.694      69.742    -311.579
  O       90.886      69.725    -309.274
  H       90.902      76.448    -308.808
  H       90.587      69.885    -311.976
  H       90.528      72.060    -305.201
  H       89.385      72.481    -307.372
  H       88.361      75.830    -308.407
  H       90.690      74.119    -309.412
  H       89.741      74.091    -311.565
  H       87.027      74.013    -310.675
  H       91.609      74.927    -303.086
  H       87.364      71.631    -310.194
  H       91.572      73.191    -303.191
  H       88.215      72.079    -311.698
  P       88.017      75.643    -312.880
  C       90.030      76.818    -314.019
  O       89.293      75.614    -313.860
  O       87.350      77.070    -313.158
  O       87.058      74.515    -313.072
  H       86.385      77.022    -313.043
  H       90.844      76.652    -314.693
  H       90.412      77.131    -313.070
  H       89.389      77.579    -314.414

 6  7  8  9  10  11  12  13  14  15  16  26  30  31  32  33  35 0
 6-311+G(2d,p)
 ****
 37  38 0
 6-311+G(2d,p)
 ****
 1  2  3  4  5  17  18  19  20  21  22  23  24  25 0
 3-21G
 ****
 27  28  29  34  36  39  40  41  42  43  44  45  46 0
 3-21G
 ****


