%nproc=1
%NoSave
%Mem=1900MB
#P OB98/GEN NMR

erre ene a

0 1
  C     1111.976     711.630    -273.948
  O     1112.936     710.969    -273.150
  P     1112.845     709.351    -273.070
  C     1115.407     709.502    -273.466
  O     1114.333     708.835    -272.813
  C     1116.662     708.615    -273.483
  O     1117.216     708.534    -272.152
  C     1116.423     707.162    -273.951
  O     1117.608     706.735    -274.644
  C     1116.267     706.396    -272.651
  O     1116.503     705.006    -272.809
  C     1117.266     707.137    -271.781
  N     1118.937     705.384    -267.342
  C     1119.515     705.271    -268.581
  N     1120.692     704.665    -268.657
  N     1118.941     705.722    -269.681
  C     1117.745     706.336    -269.447
  C     1117.088     706.461    -268.250
  C     1117.728     706.004    -267.060
  O     1117.317     706.135    -265.905
  N     1115.833     707.074    -268.443
  C     1115.817     707.357    -269.727
  N     1116.966     706.971    -270.369
  O     1112.540     708.938    -274.579
  O     1111.845     708.821    -272.073
  H     1116.388     704.582    -271.940
  H     1111.566     708.844    -274.717
  H     1119.425     705.038    -266.523
  H     1115.000     707.854    -270.238
  H     1118.303     706.779    -271.941
  H     1115.248     706.534    -272.273
  H     1121.208     704.312    -267.865
  H     1115.555     707.078    -274.614
  H     1121.146     704.570    -269.580
  H     1117.413     709.103    -274.126
  H     1115.662     710.422    -272.920
  H     1115.113     709.796    -274.499
  P     1117.456     705.774    -275.903
  C     1119.362     706.138    -277.596
  O     1118.912     705.439    -276.459
  O     1116.831     706.726    -277.018
  O     1116.554     704.587    -275.676
  H     1116.248     706.205    -277.605
  H     1120.461     706.130    -277.622
  H     1119.034     707.167    -277.608
  H     1118.977     705.637    -278.490
  H     1112.149     712.685    -273.913
  H     1110.996     711.417    -273.576
  H     1112.056     711.289    -274.959

 3  4  5  6  7  8  9  10  11  12  23  26  30  31 0
 6-311+G(2d,p)
 ****
 33  35  36  37  38 0
 6-311+G(2d,p)
 ****
 1  2  13  14  15  16  17  18  19  20  21  22  24  25 0
 3-21G
 ****
 27  28  29  32  34  39  40  41  42  43  44  45  46  47  48  49 0
 3-21G
 ****


