%nproc=1
%NoSave
%Mem=1900MB
#P OB98/GEN NMR

erre ene a

0 1
  C      105.183      93.808     -12.085
  O      105.688      94.650     -13.101
  H      104.199      93.424     -12.367
  H      105.865      92.963     -11.955
  H      105.113      94.354     -11.140
  P      104.835      95.964     -13.444
  C      103.633      94.705     -15.375
  O      103.499      95.441     -14.166
  C      102.279      94.136     -15.780
  O      101.916      93.043     -14.907
  C      101.128      95.132     -15.694
  O      101.069      95.982     -16.827
  C       99.942      94.185     -15.653
  O       99.678      93.680     -16.976
  C      100.471      93.061     -14.751
  N       99.374      90.679     -10.358
  C       99.627      90.211     -11.598
  N       99.906      90.912     -12.716
  C       99.910      92.229     -12.463
  C       99.661      92.854     -11.252
  C       99.389      92.016     -10.157
  N       99.116      92.491      -8.893
  N       99.719      94.228     -11.390
  C      100.029      94.423     -12.655
  N      100.145      93.247     -13.348
  O      105.652      96.642     -14.643
  O      104.604      96.903     -12.308
  H       99.038      92.950     -16.874
  H      105.421      97.586     -14.714
  H       99.601      89.130     -11.707
  H      100.180      95.391     -13.115
  H      100.095      92.074     -15.045
  H       99.025      94.661     -15.302
  H      101.161      95.707     -14.760
  H      102.371      93.733     -16.797
  H      104.340      93.885     -15.219
  H       98.753      91.823      -8.230
  H       98.977      93.483      -8.773
  H      104.019      95.366     -16.156
  P      100.795      97.541     -16.564
  C       98.244      97.429     -17.063
  O       99.266      97.644     -16.094
  O      100.776      98.160     -18.038
  O      101.794      98.210     -15.679
  H      101.027      99.103     -18.022
  H       97.285      97.531     -16.599
  H       98.340      96.444     -17.470
  H       98.339      98.150     -17.848

 6  7  8  9  10  11  12  13  14  15  25  28  32  33  34  35 0
 6-311+G(2d,p)
 ****
 36  39  40 0
 6-311+G(2d,p)
 ****
 1  2  3  4  5  16  17  18  19  20  21  22  23  24 0
 3-21G
 ****
 26  27  29  30  31  37  38  41  42  43  44  45  46  47 0
 3-21G
 ****
 48 0
 3-21G
 ****


