%nproc=1
%NoSave
%Mem=1900MB
#P OB98/GEN NMR

erre ene a

0 1
  C     -297.452    -651.128     -90.161
  O     -296.349    -651.097     -89.276
  P     -294.861    -651.046     -89.863
  C     -294.619    -648.576     -89.210
  O     -294.542    -649.527     -90.264
  C     -293.696    -647.390     -89.503
  O     -292.318    -647.810     -89.495
  C     -293.918    -646.752     -90.867
  O     -295.078    -645.941     -90.859
  C     -292.611    -645.994     -91.057
  O     -292.645    -644.740     -90.358
  C     -291.597    -646.947     -90.398
  N     -289.107    -646.825     -94.846
  C     -289.866    -645.903     -94.213
  N     -290.534    -646.027     -93.045
  C     -290.368    -647.261     -92.540
  C     -289.655    -648.314     -93.086
  C     -288.978    -648.052     -94.290
  N     -288.149    -648.960     -94.912
  N     -289.751    -649.435     -92.285
  C     -290.523    -649.061     -91.280
  N     -290.864    -647.740     -91.359
  O     -294.556    -652.060     -90.918
  O     -293.939    -651.281     -88.575
  H     -292.826    -644.938     -89.417
  H     -293.406    -652.086     -88.699
  H     -289.948    -644.941     -94.709
  H     -290.842    -649.706     -90.465
  H     -290.861    -646.401     -89.798
  H     -292.398    -645.775     -92.111
  H     -293.998    -647.532     -91.636
  H     -293.827    -646.653     -88.701
  H     -294.310    -649.061     -88.282
  H     -287.601    -648.623     -95.687
  H     -287.804    -649.750     -94.371
  H     -295.649    -648.232     -89.105
  P     -295.701    -645.431     -92.244
  C     -297.856    -646.801     -92.045
  O     -296.667    -646.589     -92.784
  O     -294.715    -644.909     -93.240
  O     -296.729    -644.292     -91.794
  H     -296.777    -643.603     -92.489
  H     -297.629    -647.366     -91.133
  H     -298.549    -647.377     -92.660
  H     -298.326    -645.848     -91.777
  H     -298.361    -651.160     -89.597
  H     -297.387    -651.997     -90.782
  H     -297.443    -650.250     -90.773

 3  4  5  6  7  8  9  10  11  12  22  25  29  30  31  32 0
 6-311+G(2d,p)
 ****
 33  36  37 0
 6-311+G(2d,p)
 ****
 1  2  13  14  15  16  17  18  19  20  21  23  24  26 0
 3-21G
 ****
 27  28  34  35  38  39  40  41  42  43  44  45  46  47  48 0
 3-21G
 ****


