%nproc=1
%NoSave
%Mem=1900MB
#P OB98/GEN NMR

erre ene a

0 1
  C      982.011    -694.956    -116.852
  O      981.795    -694.470    -115.512
  P      980.485    -693.580    -115.277
  C      980.822    -693.769    -112.704
  O      979.905    -693.904    -113.798
  C      980.040    -693.565    -111.371
  O      979.118    -692.433    -111.529
  C      979.201    -694.772    -110.908
  O      979.269    -694.842    -109.475
  C      977.783    -694.356    -111.280
  O      976.829    -695.075    -110.506
  C      977.832    -692.867    -111.031
  N      973.074    -691.201    -110.630
  C      973.890    -691.772    -109.680
  N      973.325    -691.970    -108.478
  N      975.131    -692.153    -109.914
  C      975.536    -691.843    -111.165
  C      974.871    -691.241    -112.212
  C      973.468    -690.887    -111.926
  O      972.673    -690.398    -112.763
  N      975.626    -691.125    -113.327
  C      976.785    -691.663    -112.998
  N      976.790    -692.112    -111.680
  O      979.383    -694.217    -116.239
  O      980.673    -692.108    -115.570
  H      976.886    -694.751    -109.584
  H      979.051    -693.555    -116.874
  H      972.120    -690.941    -110.429
  H      977.648    -691.767    -113.640
  H      977.806    -692.623    -109.975
  H      977.601    -694.620    -112.328
  H      972.391    -691.661    -108.209
  H      979.514    -695.717    -111.331
  H      973.934    -692.385    -107.732
  H      980.761    -693.269    -110.598
  H      981.484    -692.926    -112.866
  H      981.399    -694.675    -112.640
  P      980.420    -695.756    -108.843
  C      982.372    -694.062    -109.125
  O      981.797    -695.288    -109.521
  O      980.144    -697.199    -109.520
  O      980.450    -695.826    -107.367
  H      980.498    -697.921    -108.929
  H      981.883    -693.626    -108.272
  H      982.265    -693.335    -109.955
  H      983.429    -694.216    -108.919
  H      982.911    -695.533    -116.881
  H      982.097    -694.127    -117.523
  H      981.185    -695.569    -117.147

 3  4  5  6  7  8  9  10  11  12  23  26  30  31  33  0
 6-311+G(2d,p)
 ****
 35  36  37  38 0
 6-311+G(2d,p)
 ****
 1  2  13  14  15  16  17  18  19  20  21  22  24  25  27  28  29 0
 3-21G
 ****
 32  34  39  40  41  42  43  44  45  46  47  48  49 0
 3-21G
 ****


