%nproc=1
%NoSave
%Mem=1900MB
#P OB98/GEN NMR

erre ene a

0 1
  C     -229.928     -38.951      86.150
  O     -230.461     -38.043      87.098
  H     -229.356     -38.385      85.408
  H     -230.744     -39.476      85.642
  H     -229.268     -39.669      86.641
  P     -231.310     -38.686      88.301
  C     -233.483     -38.113      86.973
  O     -232.728     -39.099      87.667
  C     -234.918     -38.610      86.746
  O     -234.870     -39.781      85.875
  C     -235.631     -39.041      88.038
  O     -237.042     -38.811      87.878
  C     -235.371     -40.539      88.053
  O     -236.248     -41.187      88.945
  C     -235.548     -40.849      86.566
  N     -236.743     -45.657      85.354
  C     -237.510     -44.572      85.612
  N     -237.115     -43.319      85.917
  C     -235.770     -43.235      85.920
  C     -234.863     -44.253      85.686
  C     -235.396     -45.520      85.397
  N     -234.622     -46.635      85.157
  N     -233.567     -43.784      85.809
  C     -233.694     -42.499      86.109
  N     -235.010     -42.130      86.186
  O     -231.655     -37.416      89.218
  O     -230.627     -39.764      89.073
  H     -235.873     -42.037      89.253
  H     -230.978     -37.315      89.917
  H     -238.588     -44.736      85.559
  H     -232.883     -41.810      86.287
  H     -236.606     -40.828      86.264
  H     -234.347     -40.760      88.379
  H     -235.272     -38.517      88.928
  H     -235.482     -37.837      86.215
  H     -232.996     -37.920      86.011
  H     -233.504     -37.189      87.567
  H     -235.085     -47.512      84.986
  H     -233.612     -46.555      85.217
  P     -237.688     -37.466      88.498
  C     -238.566     -38.488      90.739
  O     -237.713     -37.548      90.099
  O     -239.242     -37.652      88.129
  O     -237.169     -36.186      87.931
  H     -239.596     -36.814      87.764
  H     -238.455     -38.405      91.800
  H     -238.303     -39.478      90.429
  H     -239.582     -38.289      90.470

 6  7  8  9  10  11  12  13  14  15  25  28  32  33  34  35 0
 6-311+G(2d,p)
 ****
 36  37  40 0
 6-311+G(2d,p)
 ****
 1  2  3  4  5  16  17  18  19  20  21  22  23  24 0
 3-21G
 ****
 26  27  29  30  31  38  39 41  42  43  44  45  46  47  48 0
 3-21G
 ****


