%nproc=1
%NoSave
%Mem=1900MB
#P OB98/GEN NMR

erre ene a

0 1
  C     -100.456    -225.737    -899.430
  O     -101.820    -225.819    -899.880
  P     -102.810    -226.863    -899.180
  C     -103.827    -225.248    -897.400
  O     -103.089    -226.431    -897.650
  C     -104.299    -225.196    -895.930
  O     -105.367    -226.173    -895.710
  C     -103.202    -225.489    -894.890
  O     -103.500    -224.710    -893.730
  C     -103.413    -226.964    -894.600
  O     -102.832    -227.386    -893.370
  C     -104.945    -227.031    -894.630
  N     -105.490    -228.387    -894.790
  C     -105.769    -229.110    -893.650
  O     -105.521    -228.735    -892.510
  N     -106.305    -230.360    -893.850
  C     -106.551    -230.952    -895.070
  O     -107.023    -232.065    -895.190
  C     -106.214    -230.124    -896.250
  C     -105.700    -228.909    -896.050
  O     -101.865    -228.150    -898.990
  O     -104.031    -227.226    -899.970
  H     -102.882    -226.637    -892.760
  H     -102.344    -228.953    -899.270
  H     -106.514    -230.900    -893.040
  H     -106.406    -230.550    -897.220
  H     -105.460    -228.281    -896.910
  H     -105.341    -226.594    -893.700
  H     -102.954    -227.567    -895.410
  H     -102.197    -225.262    -895.260
  H     -104.747    -224.210    -895.740
  H     -104.704    -225.222    -898.050
  H     -103.199    -224.383    -897.620
  P     -103.040    -223.168    -893.710
  C     -105.481    -222.202    -893.820
  O     -104.197    -222.315    -894.420
  O     -101.876    -223.185    -894.820
  O     -102.575    -222.676    -892.380
  H     -102.135    -223.686    -895.620
  H     -105.408    -222.074    -892.740
  H     -106.059    -223.113    -894.040
  H     -105.986    -221.350    -894.250
  H      -99.936    -224.995    -900.000
  H      -99.979    -226.686    -899.562
  H     -100.438    -225.469    -898.395

 3  4  5  6  7  8  9  10  11  12  13  23  28  29  30  31  32 0
 6-311+G(2d,p)
 ****
 33  34 0
 6-311+G(2d,p)
 ****
 1  2  14  15  16  17  18  19  20  21  22  24  25  26 0
 3-21G
 ****
 27  35  36  37  38  39  40  41  42  43  44  45 0
 3-21G
 ****


