%nproc=1
%NoSave
%Mem=1900MB
#P OB98/GEN NMR

erre ene a

0 1
  C       58.219    -176.902    -116.522
  O       57.489    -175.793    -116.037
  H       58.905    -177.241    -115.742
  H       58.801    -176.613    -117.401
  H       57.543    -177.723    -116.778
  P       56.336    -175.208    -116.987
  C       56.227    -173.350    -118.810
  O       57.011    -174.022    -117.835
  C       56.567    -171.858    -118.812
  O       56.115    -171.278    -117.558
  C       58.072    -171.581    -118.928
  O       58.269    -170.406    -119.722
  C       58.488    -171.308    -117.492
  O       59.673    -170.530    -117.377
  C       57.240    -170.601    -116.957
  N       57.151    -170.643    -115.498
  C       58.083    -169.904    -114.777
  O       58.927    -169.159    -115.277
  N       58.023    -170.044    -113.413
  C       57.162    -170.848    -112.723
  O       57.176    -170.949    -111.503
  C       56.207    -171.611    -113.540
  C       56.246    -171.478    -114.869
  O       55.379    -174.428    -115.969
  O       55.602    -176.214    -117.808
  H       54.680    -175.022    -115.632
  H       59.787    -170.293    -116.433
  H       58.689    -169.513    -112.874
  H       55.516    -172.266    -113.028
  H       55.566    -172.037    -115.500
  H       57.215    -169.558    -117.299
  H       58.653    -172.255    -116.963
  H       58.628    -172.415    -119.359
  H       56.010    -171.366    -119.617
  H       55.168    -173.477    -118.568
  H       56.424    -173.787    -119.796
  P       58.397    -170.602    -121.311
  C       60.349    -171.306    -122.905
  O       59.928    -171.003    -121.584
  O       58.281    -169.095    -121.828
  O       57.378    -171.544    -121.865
  H       58.714    -168.450    -121.241
  H       61.391    -171.549    -122.900
  H       60.184    -170.457    -123.535
  H       59.790    -172.140    -123.275

 6  7  8  9  10  11  12  13  14  15  16  27  31  32  33  34  35 0
 6-311+G(2d,p)
 ****
 36  37 0
 6-311+G(2d,p)
 ****
 1  2  3  4  5  17  18  19  20  21  22  23  24  25 0
 3-21G
 ****
 26  28  29  30  38  39  40  41  42  43  44  45 0
 3-21G
 ****


