%nproc=1
%NoSave
%Mem=1900MB
#P OB98/GEN NMR

erre ene a

0 1
  C     -620.122      85.233    -480.648
  O     -619.093      85.090    -481.601
  P     -619.336      84.238    -482.938
  C     -619.404      81.739    -483.551
  O     -619.145      82.697    -482.527
  C     -618.431      80.566    -483.425
  O     -618.486      79.978    -482.102
  C     -618.731      79.410    -484.369
  O     -618.586      79.641    -485.748
  C     -617.888      78.304    -483.753
  O     -616.524      78.407    -484.158
  C     -618.033      78.610    -482.241
  N     -618.935      77.667    -481.578
  C     -618.326      76.646    -480.864
  O     -617.107      76.510    -480.768
  N     -619.171      75.745    -480.269
  C     -620.533      75.744    -480.361
  O     -621.229      74.880    -479.841
  C     -621.116      76.838    -481.149
  C     -620.307      77.740    -481.714
  O     -618.535      84.666    -484.121
  O     -620.920      84.336    -483.152
  H     -616.055      77.622    -483.812
  H     -621.455      83.980    -482.423
  H     -618.751      74.992    -479.752
  H     -622.197      76.874    -481.234
  H     -620.717      78.556    -482.298
  H     -617.057      78.548    -481.750
  H     -618.239      77.309    -484.057
  H     -619.781      79.122    -484.227
  H     -617.414      80.947    -483.566
  H     -619.266      82.215    -484.525
  H     -620.444      81.404    -483.479
  P     -618.478      78.465    -486.834
  C     -616.726      76.680    -487.515
  O     -617.017      77.817    -486.735
  O     -619.007      78.764    -488.197
  O     -619.390      77.326    -486.166
  H     -619.804      76.796    -486.865
  H     -615.708      76.348    -487.288
  H     -616.784      76.920    -488.578
  H     -617.419      75.865    -487.282
  H     -619.772      85.831    -479.832
  H     -620.409      84.268    -480.286
  H     -620.966      85.709    -481.103

 3  4  5  6  7  8  9  10  11  12  13  23  28  29  30  31  32 0
 6-311+G(2d,p)
 ****
 33  34 0
 6-311+G(2d,p)
 ****
 1  2  14  15  16  17  18  19  20  21  22  24  25  26  27 0
 3-21G
 ****
 35  36  37  38  39  40  41  42  43  44  45 0
 3-21G
 ****


