%nproc=1
%NoSave
%Mem=1900MB
#P OB98/GEN NMR

erre ene a

0 1
  C      180.222     -17.188    -379.869
  O      179.768     -18.512    -379.542
  P      178.381     -19.039    -380.161
  C      176.923     -20.025    -378.225
  O      177.854     -20.264    -379.271
  C      176.983     -21.157    -377.198
  O      176.328     -22.342    -377.708
  C      178.392     -21.607    -376.838
  O      179.027     -20.701    -375.950
  C      178.122     -22.974    -376.216
  O      177.737     -22.846    -374.838
  C      176.940     -23.481    -377.068
  N      177.347     -24.491    -378.044
  C      177.475     -25.794    -377.572
  O      177.323     -26.097    -376.390
  N      177.821     -26.731    -378.504
  C      178.109     -26.494    -379.818
  O      178.433     -27.380    -380.599
  C      178.034     -25.086    -380.239
  C      177.668     -24.165    -379.349
  O      178.874     -19.787    -381.494
  O      177.375     -17.985    -380.490
  H      178.461     -22.362    -374.392
  H      178.164     -19.764    -382.162
  H      177.889     -27.687    -378.190
  H      178.279     -24.852    -381.269
  H      177.606     -23.124    -379.644
  H      176.169     -23.915    -376.420
  H      179.001     -23.624    -376.243
  H      178.984     -21.739    -377.750
  H      176.441     -20.832    -376.297
  H      175.914     -19.974    -378.646
  H      177.155     -19.064    -377.755
  P      180.037     -19.639    -376.610
  C      182.192     -19.265    -375.180
  O      180.825     -18.985    -375.379
  O      179.012     -18.507    -377.096
  O      180.878     -20.224    -377.696
  H      178.246     -18.425    -376.499
  H      182.716     -19.412    -376.132
  H      182.293     -20.168    -374.572
  H      182.655     -18.424    -374.655
  H      181.153     -16.999    -379.378
  H      179.496     -16.472    -379.545
  H      180.355     -17.108    -380.928

 3  4  5  6  7  8  9  10  11  12  13  23  28  29  30  31  32 0
 6-311+G(2d,p)
 ****
 33  34 0
 6-311+G(2d,p)
 ****
 1  2  14  15  16  17  18  19  20  21  22  24  25  26 0
 3-21G
 ****
 27  35  36  37  38  39  40  41  42  43  44  45 0
 3-21G
 ****


