%nproc=1
%NoSave
%Mem=1900MB
#P OB98/GEN NMR

erre ene a

0 1
  C      478.895     845.134      60.684
  O      480.302     845.174      60.548
  H      478.598     845.833      61.471
  H      478.558     844.134      60.971
  H      478.413     845.434      59.749
  P      480.996     844.123      59.559
  C      482.666     843.501      61.439
  O      481.696     843.032      60.514
  C      483.152     842.346      62.311
  O      482.070     841.831      63.109
  C      483.672     841.161      61.515
  O      484.963     841.432      60.991
  C      483.601     840.060      62.545
  O      484.721     840.112      63.444
  C      482.289     840.416      63.280
  N      481.142     839.643      62.794
  C      481.228     838.257      62.955
  O      482.214     837.741      63.475
  N      480.192     837.480      62.482
  C      479.158     838.040      61.933
  N      478.165     837.215      61.495
  C      479.024     839.507      61.764
  C      480.050     840.229      62.211
  O      481.898     844.678      58.498
  O      479.762     843.316      58.934
  H      485.505     839.890      62.904
  H      479.446     843.756      58.120
  H      478.148     839.926      61.300
  H      480.026     841.314      62.127
  H      482.390     840.234      64.359
  H      483.594     839.072      62.081
  H      482.974     840.918      60.701
  H      483.923     842.732      62.994
  H      478.308     836.221      61.624
  H      482.184     844.259      62.058
  H      477.283     837.540      61.133
  H      483.513     843.959      60.912
  P      485.719     840.360      60.077
  C      487.601     840.204      61.838
  O      486.617     839.486      61.085
  O      486.440     840.917      58.898
  O      484.542     839.332      59.678
  H      483.939     839.724      59.006
  H      488.133     839.524      62.469
  H      487.118     840.946      62.440
  H      488.286     840.679      61.168

 6  7  8  9  10  11  12  13  14  15  16  26  30  31  32  33  35 0
 6-311+G(2d,p)
 ****
 37  38 0
 6-311+G(2d,p)
 ****
 1  2  3  4  5  17  18  19  20  21  22  23  24  25 0
 3-21G
 ****
 27  28  29  34  36  39  40  41  42  43  44  45  46 0
 3-21G
 ****


