%nproc=1
%NoSave
%Mem=1900MB
#P OB98/GEN NMR

erre ene a

0 1
  C     -869.381    2049.479    1288.847
  O     -868.715    2050.171    1287.807
  H     -868.636    2049.118    1289.555
  H     -869.927    2048.634    1288.445
  H     -870.079    2050.147    1289.373
  P     -869.635    2050.696    1286.587
  C     -868.717    2050.020    1284.249
  O     -868.589    2050.858    1285.371
  C     -868.131    2050.705    1282.988
  O     -868.759    2051.988    1282.786
  C     -866.640    2051.011    1283.123
  O     -865.810    2049.862    1282.894
  C     -866.481    2052.037    1281.993
  O     -866.539    2051.340    1280.698
  C     -867.753    2052.871    1282.217
  N     -867.536    2054.035    1283.122
  C     -867.260    2055.261    1282.502
  O     -867.234    2055.358    1281.251
  N     -867.020    2056.358    1283.273
  C     -867.047    2056.228    1284.566
  N     -866.794    2057.354    1285.284
  C     -867.329    2054.972    1285.293
  C     -867.580    2053.923    1284.497
  O     -869.971    2052.201    1286.991
  O     -870.835    2049.848    1286.282
  H     -866.512    2052.042    1280.035
  H     -870.417    2052.660    1286.233
  H     -867.326    2054.912    1286.335
  H     -867.763    2052.952    1284.923
  H     -868.155    2053.239    1281.267
  H     -865.560    2052.594    1282.021
  H     -866.381    2051.507    1284.047
  H     -868.352    2050.074    1282.135
  H     -866.536    2058.199    1284.786
  H     -869.775    2049.797    1284.077
  H     -866.649    2057.362    1286.317
  H     -868.184    2049.073    1284.426
  P     -865.377    2049.023    1284.183
  C     -862.834    2049.619    1284.409
  O     -863.798    2048.678    1284.003
  O     -866.097    2047.613    1283.954
  O     -865.720    2049.632    1285.523
  H     -866.381    2047.215    1284.813
  H     -861.855    2049.231    1284.219
  H     -862.944    2049.814    1285.455
  H     -862.970    2050.528    1283.861

 6  7  8  9  10  11  12  13  14  15  16  26  30  31  32  33  35 0
 6-311+G(2d,p)
 ****
 37  38 0
 6-311+G(2d,p)
 ****
 1  2  3  4  5  17  18  19  20  21  22  23  24  25 0
 3-21G
 ****
 27  28  29  34  36  39  40  41  42  43  44  45  46 0
 3-21G
 ****


