%nproc=1
%NoSave
%Mem=1900MB
#P OB98/GEN NMR

erre ene a

0 1
  C      -39.531     291.004      -7.827
  O      -40.119     292.236      -7.408
  P      -40.024     292.660      -5.865
  C      -41.761     290.935      -5.060
  O      -40.420     291.393      -4.959
  C      -42.140     290.084      -3.839
  O      -43.537     289.674      -3.914
  C      -41.300     288.803      -3.730
  O      -41.089     288.454      -2.354
  C      -42.208     287.753      -4.340
  O      -41.844     286.436      -3.925
  C      -43.572     288.234      -3.847
  N      -47.266     284.694      -4.081
  C      -46.373     284.999      -3.111
  N      -45.436     285.969      -3.110
  C      -45.480     286.676      -4.253
  C      -46.342     286.488      -5.324
  C      -47.264     285.435      -5.213
  N      -48.153     285.107      -6.212
  N      -46.085     287.404      -6.327
  C      -45.057     288.098      -5.886
  N      -44.677     287.721      -4.625
  O      -40.708     293.934      -5.501
  O      -38.442     292.770      -5.625
  H      -42.610     285.858      -4.088
  H      -38.256     293.558      -5.079
  H      -46.418     284.376      -2.221
  H      -44.545     288.873      -6.439
  H      -43.744     287.956      -2.800
  H      -42.144     287.798      -5.435
  H      -40.329     288.853      -4.234
  H      -42.033     290.691      -2.934
  H      -41.881     290.347      -5.974
  H      -48.697     284.265      -6.090
  H      -48.061     285.552      -7.113
  H      -42.429     291.797      -5.169
  P      -39.642     288.823      -1.746
  C      -38.373     286.590      -2.231
  O      -38.588     287.941      -2.568
  O      -39.575     288.715      -0.258
  O      -39.426     290.311      -2.292
  H      -39.576     290.422      -3.246
  H      -37.721     286.137      -2.983
  H      -39.316     286.036      -2.210
  H      -37.880     286.519      -1.255
  H      -39.684     290.875      -8.878
  H      -39.987     290.193      -7.298
  H      -38.482     291.020      -7.618

 3  4  5  6  7  8  9  10  11  12  22  25  29  30  31  32 0
 6-311+G(2d,p)
 ****
 33  36  37 0
 6-311+G(2d,p)
 ****
 1  2  13  14  15  16  17  18  19  20  21  23  24  26 0
 3-21G
 ****
 27  28  34  35  38  39  40  41  42  43  44  45  46  47  48 0
 3-21G
 ****


