%nproc=1
%NoSave
%Mem=1900MB
#P OB98/GEN NMR

erre ene a

0 1
  C     -104.417     505.426    -137.591
  O     -105.632     505.105    -136.939
  H     -104.202     506.491    -137.487
  H     -103.606     504.855    -137.127
  H     -104.475     505.158    -138.650
  P     -106.957     505.830    -137.476
  C     -108.103     503.725    -138.488
  O     -107.447     504.966    -138.739
  C     -107.444     502.627    -139.316
  O     -106.069     502.450    -138.900
  C     -108.097     501.259    -139.172
  O     -109.252     501.126    -139.985
  C     -106.973     500.358    -139.659
  O     -106.905     500.401    -141.096
  C     -105.740     501.039    -139.047
  N     -102.214     498.365    -136.471
  C     -102.310     498.715    -137.773
  N     -103.284     499.423    -138.378
  C     -104.233     499.782    -137.500
  C     -104.278     499.490    -136.144
  C     -103.199     498.748    -135.623
  N     -103.109     498.375    -134.299
  N     -105.429     499.996    -135.574
  C     -106.049     500.607    -136.560
  N     -105.370     500.497    -137.743
  O     -106.401     507.175    -138.153
  O     -108.009     506.099    -136.455
  H     -107.724     499.981    -141.427
  H     -107.119     507.834    -138.221
  H     -101.495     498.378    -138.410
  H     -106.985     501.144    -136.467
  H     -104.857     500.969    -139.691
  H     -107.106     499.313    -139.374
  H     -108.317     501.021    -138.120
  H     -107.435     502.947    -140.367
  H     -109.155     503.814    -138.773
  H     -102.401     497.694    -134.073
  H     -103.907     498.527    -133.704
  H     -108.037     503.497    -137.420
  P     -110.676     501.136    -139.249
  C     -111.509     503.226    -140.562
  O     -111.187     502.655    -139.293
  O     -110.296     500.915    -137.712
  O     -111.647     500.113    -139.750
  H     -111.036     500.501    -137.225
  H     -111.832     504.237    -140.427
  H     -112.293     502.659    -141.019
  H     -110.643     503.209    -141.191

 6  7  8  9  10  11  12  13  14  15  25  28  32  33  34  35 0
 6-311+G(2d,p)
 ****
 36  39  40 0
 6-311+G(2d,p)
 ****
 1  2  3  4  5  16  17  18  19  20  21  22  23  24 0
 3-21G
 ****
 26  27  29  30  31  37  38  41  42  43  44  45  46  47 0
 3-21G
 ****
 48 0
 3-21G
 ****


