%nproc=1
%NoSave
%Mem=1900MB
#P OB98/GEN NMR

erre ene a

0 1
  C      410.000    -936.679     682.283
  O      410.794    -935.977     683.238
  P      412.350    -935.752     682.919
  C      413.368    -937.421     684.590
  O      413.131    -937.118     683.218
  C      414.087    -938.763     684.728
  O      415.338    -938.765     684.016
  C      414.445    -939.108     686.174
  O      413.305    -939.517     686.896
  C      415.503    -940.187     685.968
  O      414.892    -941.468     685.724
  C      416.219    -939.691     684.688
  N      417.525    -939.088     684.949
  C      418.512    -939.954     685.431
  O      418.258    -941.143     685.636
  N      419.762    -939.441     685.664
  C      420.009    -938.185     685.463
  N      421.256    -937.734     685.706
  C      418.978    -937.244     684.980
  C      417.773    -937.757     684.747
  O      412.961    -934.516     683.514
  O      412.378    -935.678     681.307
  H      414.541    -941.413     684.804
  H      413.113    -935.094     681.030
  H      419.228    -936.193     684.820
  H      416.964    -937.132     684.392
  H      416.378    -940.524     683.996
  H      416.147    -940.284     686.837
  H      414.900    -938.232     686.656
  H      413.441    -939.546     684.312
  H      421.946    -938.404     686.059
  H      412.412    -937.455     685.121
  H      421.555    -936.785     685.538
  H      413.949    -936.607     685.037
  P      412.570    -938.424     687.812
  C      414.307    -938.817     689.717
  O      413.645    -937.887     688.869
  O      411.578    -939.315     688.712
  O      411.823    -937.367     687.065
  H      410.770    -938.805     688.908
  H      415.201    -938.346     690.125
  H      414.603    -939.703     689.153
  H      413.643    -939.097     690.528
  H      408.993    -936.747     682.638
  H      410.396    -937.663     682.144
  H      410.015    -936.153     681.351

 3  4  5  6  7  8  9  10  11  12  13  23  27  28  29  30  32 0
 6-311+G(2d,p)
 ****
 34  35 0
 6-311+G(2d,p)
 ****
 1  2  14  15  16  17  18  19  20  21  22  24  25  26 0
 3-21G
 ****
 31  33  36  37  38  39  40  41  42  43  44  45  46 0
 3-21G
 ****


