%nproc=1
%NoSave
%Mem=1900MB
#P OB98/GEN NMR

erre ene a

0 1
  C      728.415    -758.493    -678.265
  O      727.710    -757.268    -678.178
  H      728.181    -759.084    -677.381
  H      729.484    -758.287    -678.283
  H      728.127    -759.056    -679.156
  P      727.577    -756.381    -679.498
  C      729.960    -755.385    -679.194
  O      729.072    -756.100    -680.049
  C      731.396    -755.491    -679.691
  O      731.562    -754.713    -680.905
  C      732.363    -754.900    -678.628
  O      733.661    -755.499    -678.702
  C      732.486    -753.439    -679.081
  O      733.664    -752.802    -678.597
  C      732.424    -753.584    -680.589
  N      732.767    -750.561    -684.693
  C      733.543    -751.638    -684.351
  N      734.575    -751.954    -685.180
  N      733.349    -752.357    -683.252
  C      732.342    -751.888    -682.469
  C      731.522    -750.800    -682.697
  C      731.717    -750.051    -683.933
  O      731.078    -749.066    -684.280
  N      730.616    -750.620    -681.670
  C      730.917    -751.576    -680.827
  N      731.943    -752.392    -681.280
  O      727.155    -754.922    -678.940
  O      726.602    -756.857    -680.544
  H      733.694    -752.931    -677.646
  H      726.692    -754.422    -679.623
  H      732.961    -750.046    -685.541
  H      730.395    -751.746    -679.876
  H      733.414    -753.814    -680.997
  H      731.625    -752.890    -678.666
  H      734.854    -751.338    -685.927
  H      731.983    -754.993    -677.634
  H      735.313    -752.533    -684.804
  H      731.648    -756.520    -679.955
  H      729.871    -755.831    -678.190
  H      729.646    -754.344    -679.118
  P      733.872    -756.871    -677.886
  C      735.666    -756.143    -676.091
  O      734.317    -756.475    -676.388
  O      735.203    -757.474    -678.542
  O      732.720    -757.810    -677.973
  H      734.996    -758.231    -679.110
  H      735.756    -755.912    -675.050
  H      735.960    -755.294    -676.671
  H      736.298    -756.973    -676.328

 6  7  8  9  10  11  12  13  14  15  26  29  33  34 0
 6-311+G(2d,p)
 ****
 36  38  39  40  41 0
 6-311+G(2d,p)
 ****
 1  2  3  4  5  16  17  18  19  20  21  22  23  24  25 0
 3-21G
 ****
 27  28  30  31  32  35  37  42  43  44  45  46  47 0
 3-21G
 ****
 48  49 0
 3-21G
 ****


