%nproc=1
%NoSave
%Mem=1900MB
#P OB98/GEN NMR

erre ene a

0 1
  C      362.599     218.081     415.300
  O      364.024     218.069     415.147
  P      364.969     217.013     415.905
  C      365.172     218.368     418.090
  O      365.859     217.791     416.986
  C      365.996     218.279     419.382
  O      366.248     216.902     419.721
  C      367.363     218.939     419.311
  O      367.259     220.348     419.390
  C      368.067     218.278     420.493
  O      367.726     218.937     421.728
  C      367.490     216.851     420.455
  N      368.415     215.888     419.866
  C      369.580     215.624     420.595
  O      369.815     216.221     421.646
  N      370.463     214.690     420.102
  C      370.239     214.138     418.946
  N      371.146     213.225     418.515
  C      369.072     214.464     418.107
  C      368.211     215.335     418.626
  O      365.751     216.136     414.983
  O      363.972     216.133     416.801
  H      368.167     218.434     422.441
  H      364.338     215.230     416.889
  H      368.939     214.005     417.144
  H      367.318     215.624     418.080
  H      367.234     216.514     421.466
  H      369.156     218.309     420.407
  H      367.869     218.644     418.382
  H      365.396     218.720     420.191
  H      371.933     213.020     419.114
  H      364.227     217.831     418.228
  H      371.066     212.736     417.633
  H      364.949     219.415     417.857
  P      367.310     221.226     418.053
  C      369.843     220.812     417.983
  O      368.807     221.773     417.890
  O      366.237     222.257     417.913
  O      367.208     220.133     416.883
  H      366.746     220.532     416.118
  H      370.730     221.202     417.475
  H      369.554     219.867     417.520
  H      370.082     220.646     419.037
  H      362.183     218.866     414.704
  H      362.352     218.245     416.328
  H      362.198     217.141     414.982

 3  4  5  6  7  8  9  10  11  12  13  23  27  28  29  30  32 0
 6-311+G(2d,p)
 ****
 34  35 0
 6-311+G(2d,p)
 ****
 1  2  14  15  16  17  18  19  20  21  22  24  25  26 0
 3-21G
 ****
 31  33  36  37  38  39  40  41  42  43  44  45  46 0
 3-21G
 ****


