%nproc=1
%NoSave
%Mem=1900MB
#P OB98/GEN NMR

erre ene a

0 1
  C     -837.946     665.558    -225.050
  O     -836.750     664.803    -224.818
  P     -835.989     664.966    -223.410
  C     -836.274     662.716    -222.190
  O     -836.738     664.054    -222.325
  C     -837.191     661.749    -222.948
  O     -837.066     661.909    -224.388
  C     -836.861     660.280    -222.687
  O     -837.305     659.891    -221.396
  C     -837.555     659.604    -223.853
  O     -838.964     659.412    -223.569
  C     -837.381     660.625    -224.980
  N     -836.358     660.251    -225.948
  C     -836.789     659.443    -227.021
  O     -837.957     659.070    -227.077
  N     -835.875     659.071    -227.971
  C     -834.643     659.455    -227.869
  N     -833.772     659.060    -228.841
  C     -834.145     660.298    -226.751
  C     -835.053     660.637    -225.822
  O     -835.719     666.371    -222.988
  O     -834.621     664.156    -223.656
  H     -839.370     659.092    -224.386
  H     -833.923     664.573    -223.120
  H     -833.104     660.603    -226.717
  H     -834.760     661.248    -224.975
  H     -838.320     660.755    -225.533
  H     -837.138     658.611    -224.051
  H     -835.768     660.133    -222.769
  H     -838.232     661.959    -222.650
  H     -834.148     658.484    -229.582
  H     -836.243     662.454    -221.129
  H     -832.807     659.359    -228.882
  H     -835.249     662.658    -222.564
  P     -836.208     659.308    -220.371
  C     -836.998     660.158    -218.046
  O     -836.091     660.308    -219.145
  O     -834.816     659.519    -221.169
  O     -836.390     657.865    -220.024
  H     -834.215     658.801    -220.948
  H     -836.594     660.689    -217.185
  H     -837.127     659.090    -217.792
  H     -837.964     660.581    -218.320
  H     -838.324     665.336    -226.026
  H     -837.727     666.603    -224.982
  H     -838.680     665.299    -224.316

 3  4  5  6  7  8  9  10  11  12  13  23  27  28  29  30  32 0
 6-311+G(2d,p)
 ****
 34  35 0
 6-311+G(2d,p)
 ****
 1  2  14  15  16  17  18  19  20  21  22  24  25  26 0
 3-21G
 ****
 31  33  36  37  38  39  40  41  42  43  44  45  46 0
 3-21G
 ****


