%nproc=1
%NoSave
%Mem=1900MB
#P OB98/GEN NMR

erre ene a

0 1
  C      -70.093     225.710      11.394
  O      -68.743     225.911      11.027
  H      -70.255     226.135      12.387
  H      -70.307     224.639      11.431
  H      -70.767     226.202      10.686
  P      -68.367     225.663       9.486
  C      -67.936     223.566       8.019
  O      -68.414     224.075       9.255
  C      -68.254     222.079       7.902
  O      -69.675     221.856       8.022
  C      -67.833     221.448       6.577
  O      -66.460     221.080       6.587
  C      -68.727     220.220       6.552
  O      -68.192     219.212       7.437
  C      -70.041     220.771       7.123
  N      -72.601     219.702       2.876
  C      -71.687     218.938       3.576
  N      -71.411     217.718       3.067
  N      -71.094     219.332       4.673
  C      -71.449     220.584       5.051
  C      -72.335     221.440       4.438
  C      -72.996     220.984       3.236
  O      -73.821     221.620       2.584
  N      -72.439     222.628       5.113
  C      -71.598     222.500       6.120
  N      -70.970     221.277       6.127
  O      -66.802     226.009       9.446
  O      -69.130     226.488       8.504
  H      -68.851     218.497       7.489
  H      -66.686     226.896       9.058
  H      -73.020     219.354       2.033
  H      -71.414     223.253       6.874
  H      -70.583     220.025       7.713
  H      -68.795     219.767       5.561
  H      -71.815     217.360       2.216
  H      -68.073     222.096       5.724
  H      -70.746     217.138       3.568
  H      -67.772     221.565       8.743
  H      -66.851     223.712       7.968
  H      -68.411     224.116       7.201
  P      -65.896     220.222       5.355
  C      -65.676     217.646       5.150
  O      -66.510     218.743       5.494
  O      -64.355     220.026       5.741
  O      -66.044     220.857       4.016
  H      -63.791     220.532       5.124
  H      -66.213     216.732       5.291
  H      -64.807     217.649       5.775
  H      -65.379     217.731       4.126

 6  7  8  9  10  11  12  13  14  15  26  29  33  34 0
 6-311+G(2d,p)
 ****
 36  38  39  40  41 0
 6-311+G(2d,p)
 ****
 1  2  3  4  5  16  17  18  19  20  21  22  23  24  25 0
 3-21G
 ****
 27  28  30  31  32  35  37  42  43  44  45  46  47 0
 3-21G
 ****
 48  49 0
 3-21G
 ****


