%nproc=1
%NoSave
%Mem=1900MB
#P OB98/GEN NMR

erre ene a

0 1
  C     -173.475       0.010     131.798
  O     -173.072      -0.248     133.138
  P     -173.311       0.897     134.235
  C     -175.560       0.003     135.170
  O     -174.900       1.028     134.440
  C     -175.874       0.456     136.595
  O     -176.747       1.618     136.540
  C     -176.577      -0.598     137.458
  O     -176.134      -0.407     138.808
  C     -178.039      -0.204     137.357
  O     -178.816      -0.731     138.429
  C     -177.913       1.318     137.339
  N     -182.768       2.672     138.196
  C     -181.854       2.063     138.980
  N     -180.579       1.735     138.682
  C     -180.278       2.100     137.422
  C     -181.118       2.695     136.495
  C     -182.423       2.991     136.926
  N     -183.354       3.620     136.131
  N     -180.458       2.892     135.300
  C     -179.242       2.422     135.501
  N     -179.082       1.956     136.776
  O     -172.925       2.231     133.440
  O     -172.511       0.758     135.485
  H     -178.603      -0.230     139.237
  H     -172.104       2.611     133.809
  H     -182.187       1.812     139.984
  H     -178.453       2.394     134.763
  H     -177.751       1.732     138.342
  H     -178.460      -0.580     136.417
  H     -176.394      -1.630     137.141
  H     -174.939       0.778     137.070
  H     -174.902      -0.870     135.219
  H     -184.218       3.919     136.554
  H     -183.049       4.031     135.256
  H     -176.479      -0.284     134.651
  P     -176.284      -1.653     139.806
  C     -173.777      -1.721     140.465
  O     -174.862      -2.385     139.847
  O     -177.214      -2.671     138.988
  O     -176.880      -1.305     141.129
  H     -177.719      -3.230     139.609
  H     -173.127      -2.464     140.934
  H     -174.114      -1.014     141.229
  H     -173.209      -1.179     139.705
  H     -173.252      -0.841     131.188
  H     -172.948       0.864     131.425
  H     -174.527       0.201     131.773

 3  4  5  6  7  8  9  10  11  12  22  25  29  30  31  32 0
 6-311+G(2d,p)
 ****
 33  36  37 0
 6-311+G(2d,p)
 ****
 1  2  13  14  15  16  17  18  19  20  21  23  24  26 0
 3-21G
 ****
 27  28  34  35  38  39  40  41  42  43  44  45  46  47  48 0
 3-21G
 ****


