%nproc=1
%NoSave
%Mem=1900MB
#P OB98/GEN NMR

erre ene a

0 1
  C     -324.434     130.510     333.363
  O     -324.587     130.938     334.702
  H     -324.133     129.460     333.361
  H     -323.662     131.096     332.854
  H     -325.385     130.600     332.824
  P     -324.917     132.481     334.979
  C     -323.547     134.669     335.142
  O     -323.518     133.263     334.935
  C     -322.364     135.350     334.434
  O     -321.154     135.118     335.211
  C     -322.109     134.818     333.014
  O     -321.541     135.895     332.247
  C     -321.061     133.750     333.276
  O     -320.423     133.344     332.092
  C     -320.205     134.455     334.340
  N     -319.343     133.540     335.065
  C     -317.972     133.802     335.015
  O     -317.552     134.759     334.364
  N     -317.111     132.954     335.668
  C     -317.575     131.901     336.261
  N     -316.663     131.089     336.877
  C     -319.008     131.548     336.293
  C     -319.829     132.403     335.685
  O     -325.753     132.762     336.187
  O     -325.647     132.967     333.639
  H     -321.081     133.228     331.363
  H     -326.606     133.055     333.800
  H     -319.340     130.645     336.779
  H     -320.902     132.231     335.654
  H     -319.583     135.235     333.885
  H     -321.525     132.854     333.699
  H     -323.006     134.442     332.525
  H     -322.536     136.430     334.431
  H     -315.687     131.365     336.824
  H     -323.483     134.847     336.221
  H     -316.903     130.235     337.356
  H     -324.491     135.085     334.767
  P     -322.443     136.992     331.506
  C     -323.731     137.269     329.282
  O     -322.990     136.389     330.121
  O     -321.774     138.329     331.359
  O     -323.762     137.130     332.400
  H     -324.105     138.045     332.331
  H     -324.035     136.748     328.398
  H     -323.118     138.103     329.011
  H     -324.596     137.617     329.806

 6  7  8  9  10  11  12  13  14  15  16  26  30  31  32  33  35 0
 6-311+G(2d,p)
 ****
 37  38 0
 6-311+G(2d,p)
 ****
 1  2  3  4  5  17  18  19  20  21  22  23  24  25 0
 3-21G
 ****
 27  28  29  34  36  39  40  41  42  43  44  45  46 0
 3-21G
 ****


