%nproc=1
%NoSave
%Mem=1900MB
#P OB98/GEN NMR

erre ene a

0 1
  C     -332.940     135.184    -115.600
  O     -334.117     135.968    -115.698
  P     -334.013     137.518    -115.301
  C     -333.675     138.817    -113.066
  O     -333.571     137.574    -113.758
  C     -333.237     138.656    -111.606
  O     -334.308     138.000    -110.862
  C     -331.956     137.829    -111.398
  O     -331.271     138.409    -110.271
  C     -332.522     136.462    -111.058
  O     -331.579     135.597    -110.453
  C     -333.704     136.863    -110.190
  N     -335.180     132.932    -107.256
  C     -334.206     133.861    -107.096
  N     -333.880     134.884    -107.920
  C     -334.690     134.899    -108.995
  C     -335.707     134.015    -109.296
  C     -335.954     132.985    -108.373
  N     -336.933     132.036    -108.530
  N     -336.292     134.340    -110.511
  C     -335.637     135.395    -110.927
  N     -334.675     135.796    -110.034
  O     -335.550     137.979    -115.235
  O     -333.213     138.365    -116.242
  H     -330.747     135.592    -110.965
  H     -335.658     138.879    -115.604
  H     -333.602     133.770    -106.184
  H     -335.818     135.926    -111.859
  H     -333.401     137.200    -109.183
  H     -332.842     135.974    -111.972
  H     -331.297     137.842    -112.281
  H     -333.125     139.658    -111.182
  H     -334.708     139.146    -113.087
  H     -336.898     131.231    -107.916
  H     -337.353     131.967    -109.457
  H     -333.064     139.564    -113.588
  P     -329.665     138.559    -110.343
  C     -327.807     137.479    -108.935
  O     -329.131     137.366    -109.408
  O     -329.452     139.829    -109.408
  O     -329.075     138.663    -111.719
  H     -329.904     139.741    -108.556
  H     -327.605     136.664    -108.232
  H     -327.666     138.436    -108.408
  H     -327.102     137.410    -109.774
  H     -333.156     134.178    -115.894
  H     -332.589     135.193    -114.589
  H     -332.187     135.589    -116.243

 3  4  5  6  7  8  9  10  11  12  22  25  29  30  31  32 0
 6-311+G(2d,p)
 ****
 33  36  37 0
 6-311+G(2d,p)
 ****
 1  2  13  14  15  16  17  18  19  20  21  23  24  26 0
 3-21G
 ****
 27  28  34  35  38  39  40  41  42  43  44  45  46  47  48 0
 3-21G
 ****


