%nproc=1
%NoSave
%Mem=1900MB
#P OB98/GEN NMR

erre ene a

0 1
  C     -120.208      -3.382      36.943
  O     -119.880      -4.751      37.084
  H     -121.154      -3.193      37.456
  H     -120.327      -3.137      35.885
  H     -119.431      -2.755      37.389
  P     -118.472      -5.225      36.479
  C     -117.382      -5.196      34.124
  O     -118.560      -4.983      34.890
  C     -117.566      -4.682      32.697
  O     -118.390      -5.631      31.954
  C     -118.251      -3.306      32.601
  O     -117.680      -2.603      31.492
  C     -119.684      -3.667      32.247
  O     -120.383      -2.585      31.636
  C     -119.444      -4.868      31.332
  N     -121.918      -7.745      28.020
  C     -120.689      -7.117      27.926
  N     -120.014      -7.281      26.767
  N     -120.169      -6.393      28.880
  C     -120.938      -6.342      29.992
  C     -122.172      -6.911      30.214
  C     -122.750      -7.689      29.137
  O     -123.842      -8.251      29.157
  N     -122.643      -6.602      31.469
  C     -121.693      -5.851      32.003
  N     -120.642      -5.666      31.147
  O     -118.548      -6.819      36.623
  O     -117.263      -4.659      37.146
  H     -120.320      -1.809      32.236
  H     -118.131      -7.103      37.458
  H     -122.278      -8.280      27.253
  H     -121.721      -5.417      32.995
  H     -119.106      -4.568      30.331
  H     -120.236      -3.964      33.149
  H     -120.329      -7.864      26.009
  H     -118.168      -2.697      33.509
  H     -119.090      -6.866      26.692
  H     -116.586      -4.665      32.202
  H     -117.167      -6.270      34.093
  H     -116.542      -4.679      34.602
  P     -116.677      -1.389      31.803
  C     -116.918       1.121      32.444
  O     -117.544      -0.147      32.334
  O     -116.234      -0.909      30.339
  O     -115.500      -1.768      32.641
  H     -115.347      -0.506      30.375
  H     -117.624       1.837      32.809
  H     -116.563       1.428      31.482
  H     -116.094       1.054      33.123

 6  7  8  9  10  11  12  13  14  15  26  29  33  34 0
 6-311+G(2d,p)
 ****
 36  38  39  40  41 0
 6-311+G(2d,p)
 ****
 1  2  3  4  5  16  17  18  19  20  21  22  23  24  25 0
 3-21G
 ****
 27  28  30  31  32  35  37  42  43  44  45  46  47 0
 3-21G
 ****
 48  49 0
 3-21G
 ****


