%nproc=1
%NoSave
%Mem=1900MB
#P OB98/GEN NMR

erre ene a

0 1
  C      164.345     -88.691     102.398
  O      164.893     -88.135     103.574
  P      166.473     -87.887     103.692
  C      168.472     -89.156     104.707
  O      167.084     -89.204     104.377
  C      168.663     -89.455     106.194
  O      168.185     -90.780     106.528
  C      170.122     -89.452     106.641
  O      170.811     -88.229     106.596
  C      170.010     -90.142     107.994
  O      169.595     -89.228     109.010
  C      168.904     -91.190     107.718
  N      169.455     -92.543     107.586
  C      169.229     -93.397     108.655
  O      168.603     -93.078     109.662
  N      169.771     -94.653     108.540
  C      170.540     -95.101     107.505
  O      171.030     -96.223     107.493
  C      170.762     -94.140     106.417
  C      170.219     -92.920     106.499
  O      166.866     -86.609     104.356
  O      166.985     -88.023     102.181
  H      170.337     -88.618     109.176
  H      166.810     -88.885     101.767
  H      169.623     -95.284     109.309
  H      171.365     -94.469     105.573
  H      170.368     -92.197     105.702
  H      168.180     -91.199     108.540
  H      170.975     -90.559     108.313
  H      170.675     -90.131     105.982
  H      168.064     -88.741     106.768
  H      168.850     -88.149     104.491
  H      169.016     -89.869     104.082
  P      172.411     -88.118     106.599
  C      174.327     -88.698     108.246
  O      172.960     -88.827     107.928
  O      172.995     -86.791     106.241
  O      172.814     -89.180     105.468
  H      173.630     -88.895     105.035
  H      174.535     -89.281     109.153
  H      174.584     -87.657     108.443
  H      174.953     -89.087     107.432
  H      163.284     -88.780     102.506
  H      164.769     -89.659     102.230
  H      164.567     -88.056     101.566

 3  4  5  6  7  8  9  10  11  12  13  23  28  29  30  31  32 0
 6-311+G(2d,p)
 ****
 33  34 0
 6-311+G(2d,p)
 ****
 1  2  14  15  16  17  18  19  20  21  22  24  25  26  27 0
 3-21G
 ****
 35  36  37  38  39  40  41  42  43  44  45 0
 3-21G
 ****


