%nproc=1
%NoSave
%Mem=1900MB
#P OB98/GEN NMR

erre ene a

0 1
  C       11.620     117.532      -5.639
  O       12.765     117.707      -4.820
  P       12.874     119.060      -3.963
  C       14.319     120.391      -5.648
  O       13.048     120.256      -5.021
  C       14.896     121.785      -5.410
  O       14.097     122.756      -6.141
  C       14.913     122.218      -3.933
  O       16.167     122.853      -3.640
  C       13.831     123.281      -3.861
  O       14.050     124.201      -2.794
  C       13.944     123.889      -5.260
  N       12.603     128.434      -7.009
  C       13.847     127.844      -6.954
  N       14.891     128.596      -7.377
  N       14.059     126.627      -6.524
  C       12.919     125.982      -6.166
  C       11.629     126.456      -6.181
  C       11.418     127.828      -6.601
  O       10.352     128.435      -6.589
  N       10.739     125.498      -5.758
  C       11.492     124.451      -5.483
  N       12.826     124.708      -5.670
  O       14.318     118.936      -3.285
  O       11.809     119.254      -2.937
  H       14.775     124.794      -3.074
  H       14.234     119.012      -2.315
  H       12.496     129.381      -7.329
  H       11.119     123.499      -5.119
  H       14.854     124.502      -5.334
  H       12.859     122.797      -3.711
  H       14.795     129.524      -7.753
  H       14.736     121.402      -3.224
  H       15.809     128.169      -7.367
  H       15.908     121.821      -5.834
  H       14.206     120.228      -6.723
  H       14.995     119.630      -5.242
  P       17.017     122.212      -2.439
  C       16.045     123.919      -0.726
  O       16.211     122.564      -1.097
  O       18.317     123.146      -2.366
  O       17.360     120.771      -2.641
  H       19.064     122.662      -1.963
  H       16.362     124.607      -1.517
  H       16.632     124.119       0.171
  H       14.987     124.097      -0.509
  H       11.685     116.592      -6.146
  H       11.572     118.323      -6.358
  H       10.740     117.549      -5.030

 3  4  5  6  7  8  9  10  11  12  23  26  30  31  33  0
 6-311+G(2d,p)
 ****
 35  36  37  38 0
 6-311+G(2d,p)
 ****
 1  2  13  14  15  16  17  18  19  20  21  22  24  25  27  28  29 0
 3-21G
 ****
 32  34  39  40  41  42  43  44  45  46  47  48  49 0
 3-21G
 ****


