%nproc=1
%NoSave
%Mem=1900MB
#P OB98/GEN NMR

erre ene a

0 1
  C      241.577     459.940    -208.358
  O      241.947     459.973    -206.978
  P      243.399     460.506    -206.566
  C      244.140     458.683    -204.884
  O      243.732     460.035    -205.068
  C      244.833     458.525    -203.527
  O      246.132     459.169    -203.516
  C      244.065     459.186    -202.390
  O      242.843     458.586    -202.013
  C      245.131     459.324    -201.318
  O      245.290     458.117    -200.576
  C      246.391     459.610    -202.168
  N      246.785     461.021    -202.135
  C      247.506     461.427    -201.020
  O      247.774     460.684    -200.077
  N      247.883     462.744    -201.004
  C      247.586     463.674    -201.955
  O      247.930     464.849    -201.878
  C      246.802     463.189    -203.101
  C      246.442     461.905    -203.139
  O      243.668     461.943    -206.853
  O      244.376     459.574    -207.441
  H      245.629     457.437    -201.189
  H      245.099     460.136    -207.778
  H      248.415     463.058    -200.204
  H      246.541     463.903    -203.872
  H      245.862     461.525    -203.974
  H      247.242     459.019    -201.803
  H      244.879     460.110    -200.597
  H      243.806     460.206    -202.709
  H      244.991     457.461    -203.339
  H      244.816     458.390    -205.690
  H      243.262     458.034    -204.961
  P      241.413     459.260    -202.284
  C      240.598     458.362    -199.992
  O      240.324     458.524    -201.367
  O      241.038     459.532    -203.704
  O      241.580     460.668    -201.525
  H      241.064     461.341    -202.010
  H      239.762     457.830    -199.528
  H      240.702     459.337    -199.508
  H      241.510     457.778    -199.848
  H      240.581     459.559    -208.451
  H      242.253     459.306    -208.893
  H      241.620     460.930    -208.762

 3  4  5  6  7  8  9  10  11  12  13  23  28  29  30  31  32 0
 6-311+G(2d,p)
 ****
 33  34 0
 6-311+G(2d,p)
 ****
 1  2  14  15  16  17  18  19  20  21  22  24  25  26  27 0
 3-21G
 ****
 35  36  37  38  39  40  41  42  43  44  45 0
 3-21G
 ****


