%nproc=1
%NoSave
%Mem=1900MB
#P OB98/GEN NMR

erre ene a

0 1
  C     -251.234      70.725     -40.219
  O     -251.113      69.646     -39.315
  H     -250.271      71.233     -40.332
  H     -251.545      70.337     -41.194
  H     -251.991      71.434     -39.864
  P     -250.646      70.018     -37.823
  C     -252.908      70.539     -36.673
  O     -251.853      69.601     -36.845
  C     -253.921      70.009     -35.659
  O     -254.393      68.715     -36.127
  C     -253.354      69.831     -34.239
  O     -254.211      70.451     -33.272
  C     -253.377      68.329     -34.016
  O     -253.655      67.973     -32.665
  C     -254.476      67.869     -34.967
  N     -254.774      63.083     -33.237
  C     -255.330      64.229     -32.788
  N     -255.292      65.454     -33.350
  C     -254.615      65.422     -34.514
  C     -254.015      64.324     -35.106
  C     -254.095      63.109     -34.406
  N     -253.482      61.951     -34.833
  N     -253.407      64.681     -36.300
  C     -253.601      65.980     -36.399
  N     -254.313      66.477     -35.337
  O     -250.688      71.620     -37.817
  O     -249.299      69.502     -37.449
  H     -253.636      67.001     -32.610
  H     -249.790      71.957     -37.638
  H     -255.873      64.155     -31.848
  H     -253.213      66.618     -37.188
  H     -255.476      67.994     -34.532
  H     -252.402      67.910     -34.296
  H     -252.342      70.235     -34.136
  H     -254.788      70.683     -35.644
  H     -253.414      70.702     -37.633
  H     -253.490      61.159     -34.215
  H     -252.882      61.994     -35.645
  H     -252.488      71.491     -36.332
  P     -253.551      71.622     -32.384
  C     -254.646      73.865     -33.109
  O     -254.648      72.778     -32.187
  O     -252.473      72.268     -33.376
  O     -252.910      71.130     -31.129
  H     -251.586      72.243     -32.968
  H     -255.426      74.551     -32.853
  H     -254.808      73.493     -34.099
  H     -253.702      74.367     -33.067

 6  7  8  9  10  11  12  13  14  15  25  28  32  33  34  35 0
 6-311+G(2d,p)
 ****
 36  39  40 0
 6-311+G(2d,p)
 ****
 1  2  3  4  5  16  17  18  19  20  21  22  23  24 0
 3-21G
 ****
 26  27  29  30  31  37  38  41  42  43  44  45  46  47  48 0
 3-21G
 ****


