%nproc=1
%NoSave
%Mem=1900MB
#P OB98/GEN NMR

erre ene a

0 1
  C      382.629     279.995    -226.387
  O      383.288     278.766    -226.214
  P      383.778     278.297    -224.762
  C      384.399     279.649    -222.654
  O      384.452     279.582    -224.081
  C      385.513     280.559    -222.129
  O      385.340     281.919    -222.607
  C      385.529     280.693    -220.604
  O      385.849     279.542    -219.857
  C      386.422     281.912    -220.440
  O      387.807     281.544    -220.521
  C      386.017     282.775    -221.658
  N      385.176     283.913    -221.256
  C      385.799     284.887    -220.497
  O      386.978     284.865    -220.183
  N      384.995     285.936    -220.100
  C      383.659     286.055    -220.338
  O      382.987     286.993    -219.906
  C      383.045     284.962    -221.114
  C      383.810     283.945    -221.535
  O      384.620     277.073    -224.734
  O      382.404     278.161    -223.933
  H      388.326     282.365    -220.597
  H      381.883     278.985    -223.871
  H      385.430     286.666    -219.547
  H      381.981     285.027    -221.332
  H      383.388     283.137    -222.118
  H      386.904     283.175    -222.153
  H      386.284     282.382    -219.453
  H      384.522     280.984    -220.282
  H      386.483     280.182    -222.516
  H      384.546     278.625    -222.250
  H      383.414     279.990    -222.341
  P      385.275     279.269    -218.382
  C      384.900     280.668    -216.228
  O      385.507     280.591    -217.511
  O      385.644     277.957    -217.746
  O      383.697     279.302    -218.636
  H      383.263     278.708    -217.997
  H      385.115     281.663    -215.788
  H      385.309     279.908    -215.566
  H      383.810     280.557    -216.316
  H      382.384     280.126    -227.420
  H      383.269     280.791    -226.068
  H      381.732     280.004    -225.804

 3  4  5  6  7  8  9  10  11  12  13  23  28  29  30  31  32 0
 6-311+G(2d,p)
 ****
 33  34 0
 6-311+G(2d,p)
 ****
 1  2  14  15  16  17  18  19  20  21  22  24  25  26  27 0
 3-21G
 ****
 35  36  37  38  39  40  41  42  43  44  45 0
 3-21G
 ****


