%nproc=1
%NoSave
%Mem=1900MB
#P OB98/GEN NMR

erre ene a

0 1
  C      -78.659     679.808    -782.870
  O      -77.572     680.570    -782.346
  P      -77.887     681.894    -781.514
  C      -77.578     680.689    -779.239
  O      -78.470     681.457    -780.070
  C      -78.258     680.355    -777.904
  O      -79.402     679.478    -778.087
  C      -77.342     679.618    -776.939
  O      -76.389     680.501    -776.380
  C      -78.343     679.028    -775.961
  O      -78.745     679.995    -774.978
  C      -79.547     678.692    -776.890
  N      -79.666     677.276    -777.178
  C      -80.405     676.516    -776.261
  O      -80.843     677.044    -775.248
  N      -80.571     675.167    -776.505
  C      -80.053     674.628    -777.563
  N      -80.261     673.311    -777.762
  C      -79.274     675.400    -778.563
  C      -79.124     676.711    -778.317
  O      -78.697     682.934    -782.213
  O      -76.423     682.441    -781.143
  H      -79.524     679.626    -774.522
  H      -76.464     683.419    -781.075
  H      -78.892     674.899    -779.450
  H      -78.571     677.342    -778.986
  H      -80.502     679.020    -776.418
  H      -77.942     678.166    -775.430
  H      -76.829     678.795    -777.475
  H      -78.603     681.302    -777.441
  H      -80.798     672.803    -777.054
  H      -76.669     681.271    -779.051
  H      -79.961     672.807    -778.593
  H      -77.287     679.782    -779.780
  P      -75.052     680.781    -777.213
  C      -75.670     683.215    -777.876
  O      -75.379     681.907    -778.315
  O      -74.853     679.444    -778.086
  O      -73.822     681.042    -776.371
  H      -73.927     679.240    -778.188
  H      -75.560     683.890    -778.726
  H      -75.006     683.526    -777.071
  H      -76.716     683.264    -777.535
  H      -78.278     678.959    -783.397
  H      -79.231     680.416    -783.539
  H      -79.283     679.478    -782.066

 3  4  5  6  7  8  9  10  11  12  13  23  27  28  29  30  32 0
 6-311+G(2d,p)
 ****
 34  35 0
 6-311+G(2d,p)
 ****
 1  2  14  15  16  17  18  19  20  21  22  24  25  26 0
 3-21G
 ****
 31  33  36  37  38  39  40  41  42  43  44  45  46 0
 3-21G
 ****


