%nproc=1
%NoSave
%Mem=1900MB
#P OB98/GEN NMR

erre ene a

0 1
  C     -895.270    -899.477    -892.060
  O     -894.970    -898.097    -892.120
  P     -893.680    -897.567    -892.930
  C     -895.150    -896.477    -894.710
  O     -894.070    -897.367    -894.480
  C     -895.420    -896.217    -896.210
  O     -894.290    -895.617    -896.860
  C     -895.790    -897.497    -897.020
  O     -896.720    -897.067    -898.010
  C     -894.470    -897.867    -897.640
  O     -894.600    -898.747    -898.740
  C     -893.880    -896.487    -897.940
  N     -892.420    -896.517    -898.090
  C     -891.910    -897.147    -899.220
  O     -892.670    -897.707    -900.000
  N     -890.550    -897.197    -899.400
  C     -889.760    -896.717    -898.480
  N     -888.420    -896.797    -898.700
  C     -890.270    -896.107    -897.220
  C     -891.580    -896.047    -897.110
  O     -892.440    -898.367    -892.700
  O     -893.480    -896.067    -892.410
  H     -895.160    -898.317    -899.430
  H     -892.530    -895.847    -892.440
  H     -889.580    -895.737    -896.480
  H     -892.030    -895.597    -896.230
  H     -894.310    -896.097    -898.870
  H     -893.850    -898.387    -896.870
  H     -896.220    -898.297    -896.390
  H     -896.260    -895.507    -896.270
  H     -888.130    -897.257    -899.540
  H     -894.920    -895.517    -894.220
  H     -887.740    -896.577    -898.000
  H     -896.060    -896.867    -894.240
  P     -898.270    -896.797    -897.670
  C     -898.450    -894.557    -898.870
  O     -898.450    -895.207    -897.630
  O     -898.790    -897.537    -896.480
  O     -899.070    -897.217    -898.990
  H     -900.000    -897.367    -898.790
  H     -898.800    -893.517    -898.740
  H     -899.090    -895.047    -899.610
  H     -897.420    -894.527    -899.270
  H     -896.157    -899.625    -891.481
  H     -894.455    -900.000    -891.604
  H     -895.424    -899.852    -893.050

 3  4  5  6  7  8  9  10  11  12  13  23  27  28  29  30  32 0
 6-311+G(2d,p)
 ****
 34  35 0
 6-311+G(2d,p)
 ****
 1  2  14  15  16  17  18  19  20  21  22  24  25  26 0
 3-21G
 ****
 31  33  36  37  38  39  40  41  42  43  44  45  46 0
 3-21G
 ****


