%nproc=1
%NoSave
%Mem=1900MB
#P OB98/GEN NMR

erre ene a

0 1
  C     -317.535     216.861      69.255
  O     -316.783     216.800      70.453
  H     -316.870     216.649      68.412
  H     -317.961     217.859      69.130
  H     -318.335     216.115      69.271
  P     -317.594     217.042      71.815
  C     -316.763     219.288      72.850
  O     -317.690     218.635      71.994
  C     -317.256     220.703      73.182
  O     -317.277     221.483      71.948
  C     -318.677     220.742      73.763
  O     -318.780     221.875      74.642
  C     -319.515     220.997      72.521
  O     -320.802     221.441      72.874
  C     -318.616     222.003      71.807
  N     -321.653     224.488      68.549
  C     -321.487     224.590      69.884
  N     -320.646     223.898      70.682
  C     -319.910     223.038      69.954
  C     -319.969     222.819      68.591
  C     -320.896     223.589      67.870
  N     -321.087     223.474      66.515
  N     -319.070     221.834      68.218
  C     -318.480     221.471      69.339
  N     -318.953     222.174      70.413
  O     -316.548     216.596      72.944
  O     -318.891     216.318      71.933
  H     -320.764     222.094      73.599
  H     -316.688     215.657      73.172
  H     -322.112     225.327      70.380
  H     -317.717     220.710      69.437
  H     -318.647     222.993      72.277
  H     -319.633     220.082      71.928
  H     -318.950     219.831      74.303
  H     -316.534     221.186      73.849
  H     -315.794     219.334      72.345
  H     -316.660     218.713      73.779
  H     -321.794     224.044      66.076
  H     -320.555     222.783      65.998
  P     -317.792     221.972      75.909
  C     -319.341     220.609      77.506
  O     -318.058     220.758      76.921
  O     -318.405     223.221      76.709
  O     -316.358     222.227      75.582
  H     -317.685     223.821      76.988
  H     -319.342     219.754      78.150
  H     -320.071     220.476      76.735
  H     -319.578     221.484      78.074

 6  7  8  9  10  11  12  13  14  15  25  28  32  33  34  35 0
 6-311+G(2d,p)
 ****
 36  37  40 0
 6-311+G(2d,p)
 ****
 1  2  3  4  5  16  17  18  19  20  21  22  23  24 0
 3-21G
 ****
 26  27  29  30  31  38  39 41  42  43  44  45  46  47  48 0
 3-21G
 ****


