%nproc=1
%NoSave
%Mem=1900MB
#P OB98/GEN NMR

erre ene a

0 1
  C     -101.609      -8.157     -52.142
  O     -100.833      -9.325     -52.315
  H     -102.185      -8.255     -51.218
  H     -102.306      -8.028     -52.975
  H     -100.961      -7.280     -52.057
  P      -99.982      -9.480     -53.667
  C     -101.734     -11.144     -54.602
  O     -101.070      -9.901     -54.773
  C     -102.893     -11.264     -55.589
  O     -103.860     -10.214     -55.382
  C     -102.500     -11.145     -57.057
  O     -101.845     -12.296     -57.562
  C     -103.870     -10.933     -57.681
  O     -104.575     -12.187     -57.730
  C     -104.521      -9.972     -56.656
  N     -104.399      -8.566     -57.036
  C     -105.396      -8.055     -57.877
  O     -106.317      -8.773     -58.264
  N     -105.306      -6.749     -58.293
  C     -104.300      -6.022     -57.919
  N     -104.233      -4.748     -58.398
  C     -103.238      -6.513     -57.020
  C     -103.344      -7.780     -56.626
  O      -98.774     -10.358     -53.591
  O      -99.648      -7.976     -54.102
  H     -105.515     -11.979     -57.875
  H      -99.110      -8.018     -54.929
  H     -102.417      -5.868     -56.746
  H     -102.594      -8.219     -55.979
  H     -105.582     -10.211     -56.519
  H     -103.824     -10.545     -58.702
  H     -101.896     -10.247     -57.228
  H     -103.403     -12.215     -55.384
  H     -104.955      -4.460     -59.045
  H     -102.091     -11.201     -53.569
  H     -103.364      -4.224     -58.384
  H     -101.040     -11.970     -54.784
  P     -100.626     -12.080     -58.586
  C     -102.148     -12.617     -60.631
  O     -101.276     -11.693     -60.001
  O     -100.084     -13.567     -58.812
  O      -99.555     -11.140     -58.128
  H      -99.347     -13.769     -58.203
  H     -102.491     -12.208     -61.558
  H     -102.986     -12.808     -59.994
  H     -101.625     -13.532     -60.817

 6  7  8  9  10  11  12  13  14  15  16  26  30  31  32  33  35 0
 6-311+G(2d,p)
 ****
 37  38 0
 6-311+G(2d,p)
 ****
 1  2  3  4  5  17  18  19  20  21  22  23  24  25 0
 3-21G
 ****
 27  28  29  34  36  39  40  41  42  43  44  45  46 0
 3-21G
 ****


