%nproc=1
%NoSave
%Mem=1900MB
#P OB98/GEN NMR

erre ene a

0 1
  C      -72.836     335.409      73.900
  O      -72.766     336.321      72.829
  P      -73.097     335.938      71.318
  C      -75.686     336.115      71.673
  O      -74.578     335.321      71.262
  C      -76.897     335.890      70.754
  O      -77.253     334.482      70.797
  C      -78.126     336.679      71.236
  O      -78.868     337.293      70.190
  C      -78.855     335.668      72.112
  O      -80.227     335.976      72.314
  C      -78.565     334.359      71.381
  N      -81.307     331.481      74.544
  C      -81.728     332.496      73.711
  N      -83.001     332.913      73.876
  N      -80.956     333.069      72.823
  C      -79.677     332.624      72.853
  C      -79.147     331.619      73.630
  C      -80.018     330.977      74.582
  O      -79.660     330.144      75.421
  N      -77.797     331.488      73.436
  C      -77.503     332.429      72.564
  N      -78.604     333.170      72.204
  O      -72.018     335.247      70.546
  O      -73.317     337.394      70.652
  H      -80.264     336.803      72.835
  H      -72.996     337.343      69.732
  H      -81.932     331.128      75.264
  H      -76.507     332.643      72.182
  H      -79.277     334.188      70.570
  H      -78.375     335.678      73.093
  H      -83.571     332.591      74.646
  H      -77.815     337.529      71.857
  H      -83.254     333.808      73.465
  H      -76.617     336.132      69.721
  H      -75.355     337.159      71.609
  H      -75.945     335.908      72.712
  P      -79.697     338.655      70.215
  C      -77.951     340.052      68.953
  O      -78.663     339.880      70.163
  O      -80.288     338.755      71.694
  O      -80.800     338.737      69.210
  H      -81.196     339.110      71.660
  H      -77.103     340.718      69.134
  H      -78.603     340.496      68.199
  H      -77.571     339.090      68.588
  H      -72.568     335.905      74.809
  H      -72.160     334.599      73.723
  H      -73.833     335.030      73.981

 3  4  5  6  7  8  9  10  11  12  23  26  30  31 0
 6-311+G(2d,p)
 ****
 33  35  36  37  38 0
 6-311+G(2d,p)
 ****
 1  2  13  14  15  16  17  18  19  20  21  22  24  25 0
 3-21G
 ****
 27  28  29  32  34  39  40  41  42  43  44  45  46  47  48  49 0
 3-21G
 ****


