%nproc=1
%NoSave
%Mem=1900MB
#P OB98/GEN NMR

erre ene a

0 1
  C      -17.947    -296.969     -86.041
  O      -16.723    -297.487     -86.514
  H      -18.755    -297.329     -86.685
  H      -17.930    -295.875     -86.086
  H      -18.147    -297.292     -85.014
  P      -15.411    -297.352     -85.597
  C      -14.007    -296.407     -87.552
  O      -14.159    -297.449     -86.598
  C      -13.364    -296.951     -88.830
  O      -12.332    -297.908     -88.445
  C      -14.353    -297.682     -89.755
  O      -13.954    -297.457     -91.115
  C      -14.117    -299.129     -89.373
  O      -14.568    -300.017     -90.373
  C      -12.605    -299.132     -89.154
  N      -12.171    -300.322     -88.426
  C      -11.967    -301.471     -89.169
  O      -12.145    -301.547     -90.391
  N      -11.618    -302.595     -88.466
  C      -11.567    -302.693     -87.102
  O      -11.335    -303.738     -86.514
  C      -11.847    -301.448     -86.357
  C      -12.131    -300.338     -87.045
  O      -15.341    -298.260     -84.414
  O      -15.381    -295.804     -85.179
  H      -15.544    -300.007     -90.414
  H      -14.839    -295.675     -84.373
  H      -11.453    -303.436     -88.991
  H      -11.830    -301.492     -85.278
  H      -12.350    -299.407     -86.533
  H      -12.073    -299.086     -90.113
  H      -14.648    -299.369     -88.452
  H      -15.394    -297.355     -89.611
  H      -12.856    -296.129     -89.352
  H      -13.368    -295.635     -87.105
  H      -14.986    -295.968     -87.777
  P      -14.575    -296.259     -91.991
  C      -15.619    -297.622     -93.901
  O      -14.622    -296.666     -93.547
  O      -13.947    -294.924     -91.731
  O      -16.119    -296.216     -91.568
  H      -16.389    -295.297     -91.415
  H      -15.565    -297.822     -94.951
  H      -16.587    -297.234     -93.661
  H      -15.453    -298.528     -93.357

 6  7  8  9  10  11  12  13  14  15  16  26  31  32  33  34  35 0
 6-311+G(2d,p)
 ****
 36  37 0
 6-311+G(2d,p)
 ****
 1  2  3  4  5  17  18  19  20  21  22  23  24  25 0
 3-21G
 ****
 27  28  29  30  38  39  40  41  42  43  44  45 0
 3-21G
 ****


