%nproc=1
%NoSave
%Mem=1900MB
#P OB98/GEN NMR

erre ene a

0 1
  C      273.964       3.994      78.276
  O      273.049       2.957      78.573
  H      273.406       4.858      77.904
  H      274.656       3.661      77.498
  H      274.520       4.291      79.170
  P      273.610       1.724      79.436
  C      273.276       0.287      77.297
  O      274.128       0.629      78.381
  C      274.028      -0.567      76.281
  O      275.110       0.189      75.692
  C      274.654      -1.832      76.863
  O      273.710      -2.892      76.946
  C      275.714      -2.127      75.816
  O      275.097      -2.719      74.651
  C      276.227      -0.720      75.473
  N      280.996       1.005      75.357
  C      280.177       0.595      74.324
  N      280.706       0.646      73.081
  N      278.952       0.172      74.489
  C      278.563       0.153      75.785
  C      279.284       0.529      76.899
  C      280.632       1.010      76.698
  O      281.396       1.395      77.580
  N      278.559       0.369      78.049
  C      277.407      -0.121      77.636
  N      277.358      -0.275      76.272
  O      272.271       1.074      80.032
  O      274.566       2.087      80.522
  H      275.795      -2.814      73.975
  H      272.179       1.343      80.966
  H      281.937       1.316      75.175
  H      276.575      -0.375      78.280
  H      276.524      -0.628      74.425
  H      276.470      -2.833      76.168
  H      281.651       0.941      72.885
  H      275.135      -1.639      77.832
  H      280.121       0.353      72.306
  H      273.328      -0.819      75.474
  H      272.925       1.207      76.815
  H      272.415      -0.266      77.686
  P      273.571      -3.673      78.338
  C      275.479      -5.288      77.639
  O      274.985      -4.386      78.621
  O      272.608      -4.896      77.958
  O      273.018      -2.876      79.468
  H      271.740      -4.786      78.395
  H      276.420      -5.683      77.959
  H      275.606      -4.770      76.711
  H      274.782      -6.089      77.508

 6  7  8  9  10  11  12  13  14  15  26  29  33  34 0
 6-311+G(2d,p)
 ****
 36  38  39  40  41 0
 6-311+G(2d,p)
 ****
 1  2  3  4  5  16  17  18  19  20  21  22  23  24  25 0
 3-21G
 ****
 27  28  30  31  32  35  37  42  43  44  45  46  47 0
 3-21G
 ****
 48  49 0
 3-21G
 ****


