%nproc=1
%NoSave
%Mem=1900MB
#P OB98/GEN NMR

erre ene a

0 1
  C     -650.906     301.425    -313.717
  O     -650.113     302.498    -313.246
  H     -650.473     301.015    -314.637
  H     -650.924     300.636    -312.960
  H     -651.930     301.759    -313.899
  P     -649.957     303.751    -314.240
  C     -648.100     302.574    -315.616
  O     -649.390     303.169    -315.630
  C     -647.702     302.150    -317.035
  O     -647.604     303.347    -317.854
  C     -646.349     301.408    -317.110
  O     -646.484     300.194    -317.860
  C     -645.448     302.361    -317.887
  O     -644.517     301.682    -318.718
  C     -646.446     303.189    -318.686
  N     -643.480     305.576    -322.075
  C     -644.145     304.401    -322.144
  N     -645.005     303.867    -321.251
  C     -645.170     304.700    -320.196
  C     -644.574     305.939    -319.998
  C     -643.683     306.370    -320.990
  N     -642.959     307.540    -320.903
  N     -644.978     306.490    -318.798
  C     -645.774     305.580    -318.258
  N     -645.906     304.474    -319.064
  O     -648.696     304.540    -313.626
  O     -651.158     304.622    -314.335
  H     -645.040     301.150    -319.353
  H     -648.992     305.430    -313.362
  H     -643.963     303.805    -323.035
  H     -646.240     305.652    -317.282
  H     -646.766     302.673    -319.604
  H     -644.894     302.982    -317.175
  H     -645.935     301.185    -316.124
  H     -648.504     301.529    -317.451
  H     -648.109     301.682    -314.970
  H     -642.247     307.712    -321.593
  H     -643.011     308.068    -320.042
  H     -647.382     303.297    -315.212
  P     -646.624     298.843    -316.997
  C     -644.333     297.650    -317.379
  O     -645.153     298.420    -316.489
  O     -646.982     297.739    -318.101
  O     -647.668     298.910    -315.934
  H     -647.820     297.296    -317.868
  H     -643.393     297.445    -316.911
  H     -644.169     298.202    -318.281
  H     -644.825     296.728    -317.610

 6  7  8  9  10  11  12  13  14  15  25  28  32  33  34  35 0
 6-311+G(2d,p)
 ****
 36  39  40 0
 6-311+G(2d,p)
 ****
 1  2  3  4  5  16  17  18  19  20  21  22  23  24 0
 3-21G
 ****
 26  27  29  30  31  37  38  41  42  43  44  45  46  47  48 0
 3-21G
 ****


