%nproc=1
%NoSave
%Mem=1900MB
#P OB98/GEN NMR

erre ene a

0 1
  C      483.785    -230.766    2280.395
  O      483.087    -231.738    2279.634
  H      484.120    -229.978    2279.737
  H      484.660    -231.230    2280.872
  H      483.133    -230.348    2281.168
  P      482.250    -232.881    2280.375
  C      479.900    -232.467    2279.385
  O      480.754    -232.312    2280.524
  C      478.442    -232.142    2279.766
  O      477.988    -233.133    2280.770
  C      478.226    -230.747    2280.391
  O      476.919    -230.321    2280.009
  C      478.274    -231.076    2281.873
  O      477.805    -230.007    2282.651
  C      477.489    -232.374    2281.900
  N      477.629    -233.123    2283.136
  C      476.519    -233.106    2284.021
  O      475.497    -232.489    2283.810
  N      476.729    -233.777    2285.184
  C      477.830    -234.467    2285.576
  O      477.906    -235.077    2286.641
  C      478.955    -234.460    2284.621
  C      478.772    -233.800    2283.456
  O      482.850    -233.401    2281.647
  O      482.094    -234.030    2279.276
  H      482.791    -234.720    2279.425
  H      478.358    -229.197    2282.469
  H      475.939    -233.758    2285.838
  H      479.842    -234.970    2284.880
  H      479.604    -233.748    2282.709
  H      476.431    -232.204    2281.688
  H      479.330    -231.245    2282.198
  H      478.994    -230.023    2280.049
  H      477.808    -232.294    2278.871
  H      479.977    -233.500    2279.032
  H      480.237    -231.786    2278.602
  P      476.666    -229.377    2278.705
  C      474.905    -230.901    2277.573
  O      476.192    -230.330    2277.472
  O      477.792    -228.478    2278.373
  O      475.357    -228.529    2279.055
  H      475.422    -227.630    2278.681
  H      474.712    -231.501    2276.708
  H      474.174    -230.123    2277.637
  H      474.854    -231.512    2278.450

 6  7  8  9  10  11  12  13  14  15  16  27  31  32  33  34  35 0
 6-311+G(2d,p)
 ****
 36  37 0
 6-311+G(2d,p)
 ****
 1  2  3  4  5  17  18  19  20  21  22  23  24  25 0
 3-21G
 ****
 26  28  29  30  38  39  40  41  42  43  44  45 0
 3-21G
 ****


