%nproc=1
%NoSave
%Mem=1900MB
#P OB98/GEN NMR

erre ene a

0 1
  C      349.959     321.466     -25.635
  O      349.731     322.849     -25.445
  P      350.947     323.893     -25.584
  C      353.244     323.998     -24.435
  O      351.844     323.790     -24.256
  C      354.008     323.586     -23.179
  O      354.049     322.138     -23.056
  C      355.470     324.017     -23.168
  O      355.600     325.408     -22.948
  C      356.029     323.129     -22.066
  O      355.732     323.679     -20.768
  C      355.239     321.818     -22.288
  N      356.039     320.803     -22.952
  C      356.763     319.948     -22.113
  O      356.771     320.128     -20.895
  N      357.469     318.915     -22.689
  C      357.549     318.825     -23.976
  N      358.207     317.748     -24.489
  C      356.936     319.805     -24.895
  C      356.175     320.743     -24.322
  O      350.553     325.284     -25.964
  O      351.890     323.245     -26.700
  H      352.101     323.932     -27.377
  H      356.103     324.578     -20.761
  H      357.076     319.720     -25.968
  H      355.668     321.491     -24.922
  H      354.879     321.434     -21.334
  H      357.116     323.025     -22.139
  H      355.932     323.761     -24.129
  H      353.478     323.992     -22.307
  H      358.603     317.088     -23.827
  H      353.416     325.050     -24.642
  H      358.054     317.399     -25.434
  H      353.588     323.426     -25.301
  P      357.055     326.056     -23.192
  C      359.403     325.426     -22.303
  O      358.019     325.516     -22.035
  O      356.841     327.597     -22.827
  O      357.575     325.895     -24.581
  H      357.377     328.154     -23.417
  H      359.936     325.381     -21.348
  H      359.754     326.283     -22.876
  H      359.603     324.493     -22.861
  H      349.041     320.932     -25.504
  H      350.677     321.122     -24.921
  H      350.331     321.298     -26.624

 3  4  5  6  7  8  9  10  11  12  13  24  27  28  29  30  32 0
 6-311+G(2d,p)
 ****
 34  35 0
 6-311+G(2d,p)
 ****
 1  2  14  15  16  17  18  19  20  21  22  23  25  26 0
 3-21G
 ****
 31  33  36  37  38  39  40  41  42  43  44  45  46 0
 3-21G
 ****


