%nproc=1
%NoSave
%Mem=1900MB
#P OB98/GEN NMR

erre ene a

0 1
  C     -530.368     239.889     280.496
  O     -530.269     241.162     281.103
  P     -529.143     241.437     282.206
  C     -530.746     240.423     283.950
  O     -529.415     240.439     283.433
  C     -530.722     240.333     285.481
  O     -529.941     239.188     285.904
  C     -530.081     241.539     286.161
  O     -530.968     242.643     286.162
  C     -529.768     240.960     287.533
  O     -530.937     240.989     288.373
  C     -529.385     239.511     287.195
  N     -525.384     237.814     289.880
  C     -526.667     238.057     290.222
  N     -527.672     238.542     289.460
  C     -527.229     238.821     288.223
  C     -525.938     238.672     287.737
  C     -524.993     238.120     288.616
  N     -523.692     237.812     288.255
  N     -525.868     239.097     286.422
  C     -527.076     239.506     286.134
  N     -527.948     239.299     287.164
  O     -528.956     242.870     282.591
  O     -527.808     240.841     281.552
  H     -530.630     240.943     289.299
  H     -527.156     241.562     281.454
  H     -526.936     237.808     291.245
  H     -527.381     239.938     285.189
  H     -529.803     238.797     287.911
  H     -528.984     241.521     288.056
  H     -529.147     241.801     285.654
  H     -531.758     240.195     285.825
  H     -531.270     239.557     283.541
  H     -523.149     237.287     288.929
  H     -523.469     237.743     287.259
  H     -531.267     241.331     283.631
  P     -530.388     244.124     285.992
  C     -530.761     244.627     288.481
  O     -529.824     244.576     287.421
  O     -531.310     245.103     285.334
  O     -529.050     243.912     285.133
  H     -528.908     244.684     284.561
  H     -531.361     245.529     288.403
  H     -530.217     244.646     289.433
  H     -531.422     243.748     288.466
  H     -531.172     239.892     279.790
  H     -530.555     239.150     281.246
  H     -529.452     239.662     279.992

 3  4  5  6  7  8  9  10  11  12  22  25  29  30  31  32 0
 6-311+G(2d,p)
 ****
 33  36  37 0
 6-311+G(2d,p)
 ****
 1  2  13  14  15  16  17  18  19  20  21  23  24  26 0
 3-21G
 ****
 27  28  34  35  38  39  40  41  42  43  44  45  46  47  48 0
 3-21G
 ****


