%nproc=1
%NoSave
%Mem=1900MB
#P OB98/GEN NMR

erre ene a

0 1
  C      107.696     -10.496     -40.536
  O      108.897     -11.113     -40.110
  P      109.925     -11.589     -41.247
  C      109.519     -14.060     -40.547
  O      109.522     -13.099     -41.599
  C      108.331     -15.006     -40.695
  O      107.131     -14.255     -40.952
  C      108.458     -15.982     -41.852
  O      109.332     -17.042     -41.516
  C      107.009     -16.412     -42.044
  O      106.675     -17.506     -41.175
  C      106.226     -15.137     -41.652
  N      105.621     -14.478     -42.798
  C      104.791     -15.278     -43.593
  O      104.626     -16.466     -43.312
  N      104.204     -14.720     -44.701
  C      104.431     -13.477     -44.990
  N      103.818     -12.976     -46.098
  C      105.315     -12.606     -44.192
  C      105.877     -13.168     -43.122
  O      111.302     -11.744     -40.451
  O      110.042     -10.660     -42.411
  H      107.321     -18.213     -41.380
  H      112.064     -11.623     -41.048
  H      105.471     -11.577     -44.477
  H      106.542     -12.601     -42.481
  H      105.426     -15.385     -40.943
  H      106.816     -16.748     -43.067
  H      108.814     -15.467     -42.753
  H      108.202     -15.545     -39.748
  H      103.223     -13.599     -46.629
  H      109.441     -13.543     -39.586
  H      103.913     -12.015     -46.395
  H      110.463     -14.614     -40.571
  P      110.643     -17.239     -42.413
  C      110.007     -19.704     -42.720
  O      110.306     -18.482     -43.366
  O      111.672     -17.886     -41.369
  O      111.204     -16.027     -43.077
  H      112.554     -17.965     -41.776
  H      109.647     -20.416     -43.465
  H      109.229     -19.559     -41.965
  H      110.909     -20.109     -42.252
  H      107.109     -10.231     -39.682
  H      107.144     -11.176     -41.151
  H      107.927      -9.615     -41.097

 3  4  5  6  7  8  9  10  11  12  13  21  23  27  28  29  30  32 0
 6-311+G(2d,p)
 ****
 34  35 0
 6-311+G(2d,p)
 ****
 1  2  14  15  16  17  18  19  20  22  24  25  26 0
 3-21G
 ****
 31  33  36  37  38  39  40  41  42  43  44  45  46 0
 3-21G
 ****


