%nproc=1
%NoSave
%Mem=1900MB
#P OB98/GEN NMR

erre ene a

0 1
  C      854.383     -11.562    -260.683
  O      854.482     -10.561    -259.688
  H      853.374     -11.992    -260.651
  H      855.105     -12.357    -260.481
  H      854.557     -11.148    -261.675
  P      855.757      -9.591    -259.694
  C      856.593      -9.677    -257.253
  O      855.848      -8.953    -258.219
  C      856.047      -9.419    -255.841
  O      856.499      -8.094    -255.409
  C      854.500      -9.429    -255.755
  O      854.157      -9.924    -254.448
  C      854.195      -7.950    -255.879
  O      852.869      -7.652    -255.509
  C      855.312      -7.366    -255.010
  N      855.489      -5.925    -255.172
  C      856.041      -5.232    -254.101
  O      856.404      -5.756    -253.055
  N      856.161      -3.870    -254.279
  C      855.779      -3.177    -255.392
  O      855.926      -1.957    -255.505
  C      855.177      -3.961    -256.471
  C      855.067      -5.290    -256.319
  O      855.820      -8.604    -260.807
  O      857.005     -10.602    -259.723
  H      857.322     -10.692    -260.643
  H      852.748      -7.804    -254.547
  H      856.549      -3.345    -253.511
  H      854.853      -3.439    -257.363
  H      854.624      -5.906    -257.096
  H      855.136      -7.595    -253.951
  H      854.305      -7.625    -256.924
  H      854.037     -10.059    -256.517
  H      856.487     -10.145    -255.151
  H      857.640      -9.357    -257.306
  H      856.533     -10.752    -257.484
  P      854.417     -11.434    -253.981
  C      851.937     -11.535    -253.283
  O      853.268     -11.872    -252.943
  O      855.802     -11.672    -253.466
  O      854.140     -12.340    -255.271
  H      854.757     -13.085    -255.277
  H      851.275     -11.880    -252.516
  H      851.678     -11.998    -254.212
  H      851.851     -10.473    -253.377

 6  7  8  9  10  11  12  13  14  15  16  27  31  32  33  34  35 0
 6-311+G(2d,p)
 ****
 36  37 0
 6-311+G(2d,p)
 ****
 1  2  3  4  5  17  18  19  20  21  22  23  24  25 0
 3-21G
 ****
 26  28  29  30  38  39  40  41  42  43  44  45 0
 3-21G
 ****


