%nproc=1
%NoSave
%Mem=1900MB
#P OB98/GEN NMR

erre ene a

0 1
  C     -320.838    -602.797    -352.861
  O     -320.572    -603.992    -352.130
  P     -319.799    -605.266    -352.704
  C     -320.293    -607.852    -352.799
  O     -320.790    -606.523    -352.680
  C     -321.427    -608.879    -352.623
  O     -321.862    -608.856    -351.226
  C     -322.661    -608.557    -353.486
  O     -323.238    -609.708    -354.093
  C     -323.538    -607.761    -352.525
  O     -324.902    -607.717    -352.925
  C     -323.248    -608.436    -351.187
  N     -326.606    -606.659    -347.770
  C     -326.822    -607.451    -348.886
  N     -328.103    -607.796    -349.139
  N     -325.870    -607.837    -349.695
  C     -324.650    -607.352    -349.368
  C     -324.315    -606.556    -348.295
  C     -325.366    -606.167    -347.382
  O     -325.222    -605.483    -346.372
  N     -322.971    -606.272    -348.289
  C     -322.496    -606.879    -349.364
  N     -323.484    -607.556    -350.052
  O     -318.421    -605.490    -352.166
  O     -319.660    -604.943    -354.280
  H     -325.258    -608.627    -352.869
  H     -318.819    -605.363    -354.570
  H     -327.378    -606.407    -347.170
  H     -321.464    -606.882    -349.682
  H     -323.869    -609.308    -351.023
  H     -323.174    -606.721    -352.530
  H     -328.906    -607.429    -348.626
  H     -322.377    -607.916    -354.330
  H     -328.287    -608.185    -350.070
  H     -321.030    -609.875    -352.836
  H     -319.554    -607.970    -352.000
  H     -319.781    -607.987    -353.747
  P     -323.255    -610.111    -355.646
  C     -324.953    -610.278    -357.550
  O     -324.683    -609.762    -356.264
  O     -323.239    -611.717    -355.645
  O     -322.087    -609.589    -356.428
  H     -322.425    -612.045    -356.095
  H     -325.834    -609.759    -357.960
  H     -325.185    -611.343    -357.466
  H     -324.106    -610.135    -358.220
  H     -321.369    -602.108    -352.238
  H     -321.430    -603.029    -353.721
  H     -319.914    -602.356    -353.173

 3  4  5  6  7  8  9  10  11  12  23  26  30  31 0
 6-311+G(2d,p)
 ****
 33  35  36  37  38 0
 6-311+G(2d,p)
 ****
 1  2  13  14  15  16  17  18  19  20  21  22  24  25 0
 3-21G
 ****
 27  28  29  32  34  39  40  41  42  43  44  45  46  47  48  49 0
 3-21G
 ****


