%nproc=1
%NoSave
%Mem=1900MB
#P OB98/GEN NMR

erre ene a

0 1
  C     -344.481    -232.303    -125.388
  O     -343.321    -232.610    -126.136
  H     -344.414    -231.290    -124.983
  H     -345.349    -232.364    -126.047
  H     -344.603    -233.023    -124.574
  P     -341.921    -232.471    -125.366
  C     -340.396    -230.728    -126.530
  O     -341.430    -230.957    -125.584
  C     -340.991    -230.460    -127.905
  O     -342.042    -229.477    -127.814
  C     -340.007    -229.899    -128.928
  O     -339.177    -230.910    -129.476
  C     -340.970    -229.339    -129.964
  O     -341.443    -230.402    -130.813
  C     -342.120    -228.806    -129.098
  N     -343.462    -224.201    -130.932
  C     -343.667    -225.452    -131.401
  N     -343.273    -226.627    -130.868
  C     -342.611    -226.432    -129.717
  C     -342.327    -225.215    -129.115
  C     -342.778    -224.059    -129.773
  N     -342.548    -222.786    -129.293
  N     -341.644    -225.405    -127.932
  C     -341.514    -226.711    -127.820
  N     -342.079    -227.374    -128.879
  O     -340.908    -233.320    -126.273
  O     -341.917    -232.949    -123.951
  H     -342.035    -229.995    -131.469
  H     -340.260    -233.763    -125.695
  H     -344.227    -225.520    -132.331
  H     -341.030    -227.218    -126.993
  H     -343.099    -229.058    -129.528
  H     -340.516    -228.585    -130.612
  H     -339.418    -229.078    -128.505
  H     -341.434    -231.396    -128.269
  H     -339.747    -231.610    -126.582
  H     -343.059    -222.019    -129.700
  H     -342.041    -222.691    -128.422
  H     -339.799    -229.869    -126.198
  P     -337.722    -230.472    -130.000
  C     -337.483    -230.029    -132.545
  O     -337.984    -229.564    -131.295
  O     -337.131    -231.828    -130.611
  O     -336.823    -229.892    -128.960
  H     -336.155    -231.803    -130.593
  H     -337.731    -229.326    -133.312
  H     -337.922    -230.977    -132.775
  H     -336.420    -230.133    -132.487

 6  7  8  9  10  11  12  13  14  15  25  28  32  33  34  35 0
 6-311+G(2d,p)
 ****
 36  39  40 0
 6-311+G(2d,p)
 ****
 1  2  3  4  5  16  17  18  19  20  21  22  23  24 0
 3-21G
 ****
 26  27  29  30  31  37  38  41  42  43  44  45  46  47  48 0
 3-21G
 ****


