%nproc=1
%NoSave
%Mem=1900MB
#P OB98/GEN NMR

erre ene a

0 1
  C      -38.974     307.068    -170.642
  O      -37.948     307.664    -171.402
  H      -39.843     307.734    -170.650
  H      -38.658     306.928    -169.604
  H      -39.265     306.109    -171.076
  P      -36.487     306.992    -171.402
  C      -35.889     308.361    -169.315
  O      -35.539     308.067    -170.662
  C      -34.970     309.426    -168.715
  O      -33.592     308.973    -168.780
  C      -35.045     310.782    -169.429
  O      -35.151     311.825    -168.456
  C      -33.716     310.878    -170.164
  O      -33.343     312.226    -170.427
  C      -32.798     310.094    -169.215
  N      -31.556     309.667    -169.849
  C      -30.372     310.025    -169.202
  O      -30.404     310.699    -168.168
  N      -29.172     309.647    -169.754
  C      -29.156     309.011    -170.883
  N      -27.939     308.674    -171.384
  C      -30.385     308.655    -171.626
  C      -31.537     309.004    -171.053
  O      -36.006     306.547    -172.741
  O      -36.590     305.808    -170.332
  H      -33.863     312.549    -171.197
  H      -35.863     305.155    -170.494
  H      -30.320     308.135    -172.571
  H      -32.490     308.775    -171.523
  H      -32.548     310.698    -168.332
  H      -33.793     310.351    -171.124
  H      -35.887     310.863    -170.114
  H      -35.206     309.523    -167.648
  H      -27.124     308.934    -170.842
  H      -35.836     307.436    -168.731
  H      -27.806     308.184    -172.259
  H      -36.922     308.732    -169.305
  P      -36.241     312.967    -168.761
  C      -34.456     314.770    -169.293
  O      -35.556     314.392    -168.477
  O      -37.290     312.799    -167.563
  O      -36.895     312.828    -170.095
  H      -38.073     312.309    -167.869
  H      -34.104     315.735    -168.992
  H      -34.767     314.807    -170.316
  H      -33.669     314.053    -169.185

 6  7  8  9  10  11  12  13  14  15  16  26  30  31  32  33  35 0
 6-311+G(2d,p)
 ****
 37  38 0
 6-311+G(2d,p)
 ****
 1  2  3  4  5  17  18  19  20  21  22  23  24  25 0
 3-21G
 ****
 27  28  29  34  36  39  40  41  42  43  44  45  46 0
 3-21G
 ****


