%nproc=1
%NoSave
%Mem=1900MB
#P OB98/GEN NMR

erre ene a

0 1
  C     -824.418     -27.259     -69.773
  O     -823.638     -27.379     -70.947
  H     -824.508     -28.246     -69.312
  H     -825.421     -26.892     -70.020
  H     -823.938     -26.581     -69.066
  P     -823.367     -26.025     -71.770
  C     -820.815     -26.478     -71.962
  O     -822.047     -26.284     -72.642
  C     -819.766     -27.014     -72.941
  O     -820.053     -28.394     -73.263
  C     -819.743     -26.283     -74.273
  O     -819.063     -25.045     -74.207
  C     -819.040     -27.306     -75.157
  O     -817.620     -27.226     -75.017
  C     -819.558     -28.635     -74.594
  N     -820.537     -30.928     -79.050
  C     -819.375     -30.545     -78.469
  N     -819.197     -29.952     -77.272
  C     -820.377     -29.791     -76.646
  C     -821.640     -30.128     -77.110
  C     -821.697     -30.726     -78.380
  N     -822.873     -31.096     -78.995
  N     -822.609     -29.766     -76.196
  C     -821.952     -29.216     -75.196
  N     -820.599     -29.217     -75.420
  O     -822.883     -25.003     -70.642
  O     -824.542     -25.504     -72.529
  H     -817.373     -26.296     -75.208
  H     -823.623     -24.426     -70.380
  H     -818.482     -30.739     -79.043
  H     -822.403     -28.809     -74.302
  H     -818.758     -29.389     -74.510
  H     -819.284     -27.154     -76.207
  H     -820.765     -26.143     -74.651
  H     -818.783     -26.975     -72.452
  H     -820.957     -27.202     -71.151
  H     -820.491     -25.524     -71.536
  H     -822.846     -31.459     -79.921
  H     -823.752     -30.849     -78.540
  P     -819.751     -23.778     -74.907
  C     -819.316     -21.742     -73.324
  O     -818.914     -22.482     -74.475
  O     -821.140     -23.608     -74.126
  O     -819.956     -23.916     -76.378
  H     -821.828     -23.304     -74.745
  H     -818.652     -20.915     -73.182
  H     -819.285     -22.377     -72.463
  H     -820.313     -21.379     -73.464

 6  7  8  9  10  11  12  13  14  15  25  28  32  33  34  35 0
 6-311+G(2d,p)
 ****
 36  37  40 0
 6-311+G(2d,p)
 ****
 1  2  3  4  5  16  17  18  19  20  21  22  23  24 0
 3-21G
 ****
 26  27  29  30  31  38  39 41  42  43  44  45  46  47  48 0
 3-21G
 ****


