%nproc=1
%NoSave
%Mem=1900MB
#P OB98/GEN NMR

erre ene a

0 1
  C     -893.570    -893.930    -897.790
  O     -894.820    -893.640    -897.140
  P     -896.170    -893.820    -897.990
  C     -897.160    -895.810    -896.540
  O     -896.710    -895.320    -897.800
  C     -896.160    -896.870    -896.020
  O     -894.850    -896.330    -895.900
  C     -896.570    -897.490    -894.700
  O     -897.460    -898.600    -894.810
  C     -895.180    -897.860    -894.120
  O     -894.730    -899.130    -894.710
  C     -894.320    -896.690    -894.610
  N     -894.260    -895.470    -893.720
  C     -893.470    -895.490    -892.550
  O     -892.800    -896.420    -892.180
  N     -893.450    -894.300    -891.840
  C     -894.000    -893.100    -892.220
  O     -893.910    -892.070    -891.570
  C     -894.690    -893.110    -893.530
  C     -894.780    -894.230    -894.160
  O     -895.660    -893.810    -899.530
  O     -897.190    -892.780    -897.750
  H     -894.830    -898.990    -895.680
  H     -896.020    -893.030    -900.000
  H     -892.960    -894.290    -890.960
  H     -895.080    -892.160    -893.880
  H     -895.310    -894.270    -895.160
  H     -893.240    -897.000    -894.700
  H     -895.240    -898.080    -893.020
  H     -896.980    -896.690    -894.030
  H     -896.090    -897.710    -896.790
  H     -898.140    -896.250    -896.630
  H     -897.230    -894.980    -895.840
  P     -899.000    -898.330    -895.060
  C     -898.990    -898.930    -897.580
  O     -899.150    -897.880    -896.600
  O     -899.700    -897.380    -894.070
  O     -899.650    -899.770    -895.040
  H     -900.000    -900.000    -894.150
  H     -899.290    -898.550    -898.560
  H     -899.660    -899.760    -897.300
  H     -897.940    -899.270    -897.590
  H     -892.765    -893.766    -897.104
  H     -893.452    -893.289    -898.639
  H     -893.563    -894.951    -898.110

 3  4  5  6  7  8  9  10  11  12  13  23  28  29  30  31  32 0
 6-311+G(2d,p)
 ****
 33  34 0
 6-311+G(2d,p)
 ****
 1  2  14  15  16  17  18  19  20  21  22  24  25  26  27 0
 3-21G
 ****
 35  36  37  38  39  40  41  42  43  44  45 0
 3-21G
 ****


