%nproc=1
%NoSave
%Mem=1900MB
#P OB98/GEN NMR

erre ene a

0 1
  C      178.152    -472.085    -174.145
  O      177.747    -472.096    -175.498
  H      179.247    -472.067    -174.110
  H      177.801    -472.984    -173.638
  H      177.775    -471.191    -173.633
  P      176.183    -471.977    -175.841
  C      175.785    -474.459    -176.430
  O      175.840    -473.124    -176.912
  C      176.516    -475.411    -177.384
  O      175.926    -475.288    -178.705
  C      178.018    -475.124    -177.516
  O      178.725    -476.359    -177.636
  C      178.117    -474.343    -178.810
  O      179.398    -474.474    -179.426
  C      176.988    -474.956    -179.633
  N      177.371    -473.644    -184.498
  C      177.945    -474.684    -183.814
  N      178.765    -475.499    -184.517
  N      177.748    -474.925    -182.541
  C      176.881    -474.048    -181.962
  C      176.246    -472.966    -182.538
  C      176.497    -472.708    -183.942
  O      176.028    -471.786    -184.598
  N      175.471    -472.304    -181.618
  C      175.634    -472.977    -180.493
  N      176.501    -474.032    -180.648
  O      175.726    -470.603    -176.227
  O      175.448    -472.491    -174.516
  H      179.557    -475.435    -179.546
  H      175.069    -471.742    -174.011
  H      177.565    -473.499    -185.474
  H      175.166    -472.745    -179.553
  H      177.293    -475.874    -180.152
  H      177.938    -473.279    -178.618
  H      178.949    -475.388    -185.506
  H      178.402    -474.558    -176.664
  H      179.180    -476.296    -184.046
  H      176.341    -476.442    -177.048
  H      174.732    -474.755    -176.349
  H      176.243    -474.500    -175.430
  P      179.545    -476.918    -176.369
  C      181.910    -476.724    -177.345
  O      180.896    -477.607    -176.886
  O      178.745    -477.732    -175.395
  O      180.085    -475.571    -175.673
  H      180.094    -475.698    -174.699
  H      182.760    -477.291    -177.663
  H      182.197    -476.067    -176.551
  H      181.537    -476.149    -178.167

 6  7  8  9  10  11  12  13  14  15  26  29  33  34 0
 6-311+G(2d,p)
 ****
 36  38  39  40  41 0
 6-311+G(2d,p)
 ****
 1  2  3  4  5  16  17  18  19  20  21  22  23  24  25 0
 3-21G
 ****
 27  28  30  31  32  35  37  42  43  44  45  46  47 0
 3-21G
 ****
 48  49 0
 3-21G
 ****


