%nproc=1
%NoSave
%Mem=1900MB
#P OB98/GEN NMR

erre ene a

0 1
  C     -302.947     654.328    -896.210
  O     -302.551     655.677    -896.120
  P     -302.778     656.404    -894.700
  C     -305.271     656.909    -895.260
  O     -303.990     657.444    -894.910
  C     -306.257     658.034    -895.520
  O     -306.641     658.663    -894.260
  C     -305.678     659.172    -896.380
  O     -305.663     658.807    -897.760
  C     -306.663     660.299    -896.050
  O     -307.816     660.261    -896.900
  C     -307.029     660.024    -894.590
  N     -306.470     660.969    -893.640
  C     -307.026     662.263    -893.650
  O     -307.931     662.518    -894.430
  N     -306.475     663.201    -892.800
  C     -305.511     662.890    -892.000
  N     -305.028     663.831    -891.170
  C     -304.876     661.540    -891.980
  C     -305.430     660.648    -892.830
  O     -301.481     657.366    -894.570
  O     -302.896     655.468    -893.520
  H     -307.489     660.239    -897.810
  H     -301.264     657.542    -893.630
  H     -304.042     661.330    -891.310
  H     -305.010     659.615    -892.870
  H     -308.139     660.041    -894.450
  H     -306.203     661.294    -896.210
  H     -304.682     659.443    -896.020
  H     -307.147     657.619    -895.980
  H     -305.468     664.771    -891.240
  H     -305.662     656.301    -894.430
  H     -304.285     663.692    -890.520
  H     -305.150     656.271    -896.120
  P     -304.231     658.588    -898.430
  C     -303.844     661.157    -898.590
  O     -304.003     659.940    -899.320
  O     -304.542     657.504    -899.580
  O     -303.077     658.176    -897.530
  H     -303.721     657.218    -900.000
  H     -303.538     661.922    -899.300
  H     -303.035     661.028    -897.850
  H     -304.779     661.426    -898.090
  H     -302.746     653.962    -897.195
  H     -303.995     654.250    -896.007
  H     -302.401     653.748    -895.496

 3  4  5  6  7  8  9  10  11  12  13  21  23  27  28  29  30  32 0
 6-311+G(2d,p)
 ****
 34  35 0
 6-311+G(2d,p)
 ****
 1  2  14  15  16  17  18  19  20  22  24  25  26 0
 3-21G
 ****
 31  33  36  37  38  39  40  41  42  43  44  45  46 0
 3-21G
 ****


