%nproc=1
%NoSave
%Mem=1900MB
#P OB98/GEN NMR

erre ene a

0 1
  C      -65.785      27.080     -41.854
  O      -67.008      27.679     -42.247
  P      -67.596      28.850     -41.318
  C      -66.754      31.219     -40.667
  O      -66.411      29.906     -41.088
  C      -65.992      31.602     -39.398
  O      -66.446      30.757     -38.303
  C      -64.466      31.443     -39.498
  O      -63.890      32.492     -38.711
  C      -64.246      30.087     -38.852
  O      -62.906      29.845     -38.459
  C      -65.269      30.154     -37.721
  N      -63.476      26.259     -34.939
  C      -62.938      27.457     -35.262
  N      -63.479      28.448     -36.001
  C      -64.713      28.111     -36.414
  C      -65.383      26.923     -36.180
  C      -64.712      25.966     -35.401
  N      -65.261      24.740     -35.080
  N      -66.621      26.928     -36.787
  C      -66.698      28.101     -37.382
  N      -65.578      28.857     -37.166
  O      -67.737      28.141     -39.892
  O      -68.892      29.435     -41.784
  H      -62.875      29.110     -37.815
  H      -68.548      28.431     -39.432
  H      -61.940      27.645     -34.877
  H      -67.527      28.443     -37.985
  H      -64.932      30.799     -36.901
  H      -64.515      29.302     -39.570
  H      -64.089      31.515     -40.522
  H      -66.248      32.636     -39.140
  H      -67.826      31.261     -40.449
  H      -64.629      24.055     -34.693
  H      -66.083      24.454     -35.596
  H      -66.549      31.925     -41.478
  P      -62.458      33.080     -39.134
  C      -61.634      34.343     -41.213
  O      -62.673      33.567     -40.650
  O      -61.624      31.729     -39.345
  O      -61.845      34.049     -38.183
  H      -62.096      31.103     -39.923
  H      -61.864      34.520     -42.268
  H      -60.681      33.812     -41.143
  H      -61.567      35.306     -40.700
  H      -65.516      26.322     -42.560
  H      -65.898      26.641     -40.885
  H      -65.018      27.825     -41.820

 3  4  5  6  7  8  9  10  11  12  22  25  29  30  31  32 0
 6-311+G(2d,p)
 ****
 33  36  37 0
 6-311+G(2d,p)
 ****
 1  2  13  14  15  16  17  18  19  20  21  23  24  26 0
 3-21G
 ****
 27  28  34  35  38  39  40  41  42  43  44  45  46  47  48 0
 3-21G
 ****


