%nproc=1
%NoSave
%Mem=1900MB
#P OB98/GEN NMR

erre ene a

0 1
  C     1083.009    -733.553    1303.274
  O     1082.195    -734.662    1303.627
  P     1082.490    -735.588    1304.929
  C     1080.023    -735.542    1305.701
  O     1081.366    -735.265    1306.058
  C     1079.184    -735.847    1306.956
  O     1079.645    -737.081    1307.566
  C     1079.212    -734.762    1308.058
  O     1077.870    -734.682    1308.587
  C     1080.182    -735.344    1309.056
  O     1080.101    -734.770    1310.338
  C     1079.811    -736.815    1308.995
  N     1080.712    -737.781    1309.612
  C     1080.272    -738.513    1310.695
  O     1079.148    -738.303    1311.197
  N     1081.104    -739.423    1311.273
  C     1082.307    -739.611    1310.853
  N     1083.090    -740.536    1311.432
  C     1082.835    -738.840    1309.660
  C     1081.982    -737.950    1309.115
  O     1083.882    -735.497    1305.427
  O     1082.166    -737.084    1304.477
  H     1082.779    -737.708    1304.899
  H     1080.510    -735.356    1310.997
  H     1083.839    -739.024    1309.294
  H     1082.333    -737.377    1308.253
  H     1078.806    -736.940    1309.474
  H     1081.205    -735.177    1308.674
  H     1079.486    -733.780    1307.691
  H     1078.146    -736.041    1306.639
  H     1082.705    -741.038    1312.223
  H     1080.002    -736.408    1305.032
  H     1084.040    -740.739    1311.131
  H     1079.604    -734.654    1305.157
  P     1076.958    -733.410    1308.306
  C     1074.803    -734.713    1307.662
  O     1075.835    -733.849    1307.240
  O     1077.946    -732.508    1307.389
  O     1076.525    -732.592    1309.475
  H     1077.685    -731.578    1307.473
  H     1073.823    -734.321    1307.281
  H     1074.726    -734.783    1308.749
  H     1074.969    -735.683    1307.265
  H     1082.625    -733.097    1302.386
  H     1084.010    -733.887    1303.099
  H     1083.005    -732.840    1304.071

 3  4  5  6  7  8  9  10  11  12  13  24  27  28  29  30  32 0
 6-311+G(2d,p)
 ****
 34  35 0
 6-311+G(2d,p)
 ****
 1  2  14  15  16  17  18  19  20  21  22  23  25  26 0
 3-21G
 ****
 31  33  36  37  38  39  40  41  42  43  44  45  46 0
 3-21G
 ****


