%nproc=1
%NoSave
%Mem=1900MB
#P OB98/GEN NMR

erre ene a

0 1
  C     -220.864     155.412      24.465
  O     -220.898     154.278      23.623
  H     -219.842     155.800      24.485
  H     -221.153     155.140      25.483
  H     -221.526     156.193      24.085
  P     -222.296     153.514      23.424
  C     -223.705     152.043      25.027
  O     -222.427     152.589      24.735
  C     -223.649     151.235      26.320
  O     -222.770     150.097      26.190
  C     -223.114     151.994      27.529
  O     -224.023     152.943      28.059
  C     -222.870     150.836      28.479
  O     -224.123     150.379      29.017
  C     -222.257     149.790      27.518
  N     -220.794     149.812      27.520
  C     -220.160     149.251      28.635
  O     -220.818     148.776      29.559
  N     -218.786     149.267      28.694
  C     -218.106     149.820      27.738
  N     -216.749     149.816      27.852
  C     -218.734     150.441      26.556
  C     -220.062     150.400      26.509
  O     -222.477     152.807      22.120
  O     -223.407     154.630      23.706
  H     -224.492     151.116      29.539
  H     -224.294     154.211      23.585
  H     -218.124     150.913      25.800
  H     -220.599     150.841      25.675
  H     -222.597     148.779      27.772
  H     -222.230     151.098      29.324
  H     -222.149     152.465      27.300
  H     -224.659     150.843      26.506
  H     -216.347     149.384      28.673
  H     -224.009     151.416      24.183
  H     -216.145     150.288      27.193
  H     -224.436     152.847      25.154
  P     -223.406     154.338      28.571
  C     -221.911     155.014      30.604
  O     -222.422     153.976      29.782
  O     -224.652     155.046      29.276
  O     -222.786     155.188      27.506
  H     -225.064     155.698      28.676
  H     -221.276     154.594      31.356
  H     -222.723     155.531      31.071
  H     -221.349     155.699      30.005

 6  7  8  9  10  11  12  13  14  15  16  26  30  31  32  33  35 0
 6-311+G(2d,p)
 ****
 37  38 0
 6-311+G(2d,p)
 ****
 1  2  3  4  5  17  18  19  20  21  22  23  24  25 0
 3-21G
 ****
 27  28  29  34  36  39  40  41  42  43  44  45  46 0
 3-21G
 ****


