%nproc=1
%NoSave
%Mem=1900MB
#P OB98/GEN NMR

erre ene a

0 1
  C      392.263    -547.904      27.318
  O      392.201    -548.156      25.919
  P      392.568    -546.938      24.939
  C      393.245    -548.686      23.140
  O      392.508    -547.508      23.443
  C      392.997    -549.108      21.691
  O      393.270    -548.003      20.796
  C      393.865    -550.259      21.200
  O      393.415    -551.494      21.706
  C      393.712    -550.098      19.690
  O      392.455    -550.645      19.257
  C      393.696    -548.567      19.526
  N      396.640    -546.834      15.704
  C      395.382    -547.333      15.723
  N      394.672    -547.795      16.774
  C      395.391    -547.694      17.906
  C      396.686    -547.231      18.043
  C      397.318    -546.780      16.876
  N      398.601    -546.271      16.861
  N      397.105    -547.296      19.357
  C      396.069    -547.794      20.005
  N      395.001    -548.029      19.176
  O      394.131    -546.721      25.193
  O      391.788    -545.684      25.176
  H      392.411    -550.537      18.282
  H      394.376    -545.775      25.117
  H      394.881    -547.367      14.763
  H      396.031    -547.974      21.069
  H      392.987    -548.227      18.762
  H      394.510    -550.593      19.123
  H      394.906    -550.095      21.482
  H      391.931    -549.359      21.590
  H      392.928    -549.502      23.797
  H      399.030    -546.103      15.970
  H      399.161    -546.356      17.703
  H      394.311    -548.498      23.308
  P      394.044    -551.998      23.103
  C      392.303    -553.884      23.330
  O      393.676    -553.556      23.148
  O      393.024    -551.360      24.158
  O      395.476    -551.659      23.296
  H      392.097    -551.540      23.924
  H      392.184    -554.957      23.294
  H      391.697    -553.424      22.541
  H      391.964    -553.511      24.313
  H      391.997    -548.792      27.852
  H      391.581    -547.119      27.569
  H      393.257    -547.612      27.584

 3  4  5  6  7  8  9  10  11  12  22  25  29  30  31  32 0
 6-311+G(2d,p)
 ****
 33  36  37 0
 6-311+G(2d,p)
 ****
 1  2  13  14  15  16  17  18  19  20  21  23  24  26 0
 3-21G
 ****
 27  28  34  35  38  39  40  41  42  43  44  45  46  47  48 0
 3-21G
 ****


