%nproc=1
%NoSave
%Mem=1900MB
#P OB98/GEN NMR

erre ene a

0 1
  C       22.971    -155.783     -17.754
  O       24.088    -155.626     -16.899
  H       23.043    -155.053     -18.564
  H       22.044    -155.605     -17.200
  H       22.963    -156.789     -18.183
  P       24.131    -156.574     -15.605
  C       23.126    -154.829     -13.970
  O       22.952    -156.071     -14.637
  C       22.692    -154.939     -12.512
  O       21.256    -155.067     -12.414
  C       23.291    -156.127     -11.765
  O       24.589    -155.822     -11.283
  C       22.275    -156.315     -10.646
  O       22.501    -155.366      -9.579
  C       20.949    -156.023     -11.362
  N       18.558    -160.335     -10.272
  C       19.171    -159.422      -9.440
  N       19.173    -159.710      -8.118
  N       19.745    -158.323      -9.860
  C       19.718    -158.193     -11.207
  C       19.145    -159.030     -12.139
  C       18.467    -160.211     -11.653
  O       17.833    -161.015     -12.334
  N       19.311    -158.541     -13.412
  C       20.011    -157.436     -13.251
  N       20.287    -157.184     -11.930
  O       25.459    -156.103     -14.841
  O       24.162    -158.040     -15.885
  H       21.915    -155.584      -8.834
  H       25.894    -156.887     -14.454
  H       18.107    -161.145      -9.890
  H       20.333    -156.779     -14.051
  H       20.222    -155.545     -10.696
  H       22.350    -157.307     -10.196
  H       19.020    -160.647      -7.777
  H       23.301    -157.025     -12.397
  H       19.689    -159.075      -7.519
  H       22.963    -154.000     -12.015
  H       22.520    -154.068     -14.474
  H       24.180    -154.540     -14.022
  P       25.573    -157.039     -10.934
  C       24.820    -157.126      -8.450
  O       24.958    -157.829      -9.679
  O       26.854    -156.299     -10.325
  O       25.952    -157.889     -12.103
  H       27.581    -156.305     -10.972
  H       24.400    -157.777      -7.712
  H       24.175    -156.284      -8.591
  H       25.781    -156.789      -8.122

 6  7  8  9  10  11  12  13  14  15  26  29  33  34 0
 6-311+G(2d,p)
 ****
 36  38  39  40  41 0
 6-311+G(2d,p)
 ****
 1  2  3  4  5  16  17  18  19  20  21  22  23  24  25 0
 3-21G
 ****
 27  28  30  31  32  35  37  42  43  44  45  46  47 0
 3-21G
 ****
 48  49 0
 3-21G
 ****


