%nproc=1
%NoSave
%Mem=1900MB
#P OB98/GEN NMR

erre ene a

0 1
  C      -68.076      54.119     320.695
  O      -67.986      55.517     320.857
  P      -69.255      56.455     320.564
  C      -68.757      58.311     322.279
  O      -69.591      57.202     321.945
  C      -68.794      58.553     323.783
  O      -68.062      57.524     324.501
  C      -68.127      59.854     324.220
  O      -68.733      61.059     323.816
  C      -67.976      59.621     325.713
  O      -69.191      59.892     326.411
  C      -67.647      58.106     325.762
  N      -66.234      57.857     326.036
  C      -65.769      58.302     327.266
  O      -66.473      58.871     328.098
  N      -64.434      58.100     327.506
  C      -63.536      57.549     326.644
  O      -62.345      57.438     326.906
  C      -64.086      57.116     325.349
  C      -65.391      57.285     325.105
  O      -70.419      55.771     319.929
  O      -68.638      57.640     319.678
  H      -69.439      60.817     326.223
  H      -67.932      58.150     320.117
  H      -64.072      58.427     328.391
  H      -63.402      56.664     324.640
  H      -65.818      56.973     324.157
  H      -68.242      57.612     326.543
  H      -67.202      60.263     326.152
  H      -67.117      59.873     323.796
  H      -69.833      58.500     324.120
  H      -69.130      59.201     321.763
  H      -67.736      58.116     321.929
  P      -67.936      62.251     323.096
  C      -69.940      63.184     321.742
  O      -68.668      62.578     321.708
  O      -66.447      62.151     323.088
  O      -68.366      63.510     324.000
  H      -67.635      64.155     324.011
  H      -70.302      63.293     320.713
  H      -69.883      64.174     322.197
  H      -70.647      62.556     322.295
  H      -67.135      53.671     320.936
  H      -68.329      53.893     319.680
  H      -68.832      53.732     321.346

 3  4  5  6  7  8  9  10  11  12  13  23  28  29  30  31  32 0
 6-311+G(2d,p)
 ****
 33  34 0
 6-311+G(2d,p)
 ****
 1  2  14  15  16  17  18  19  20  21  22  24  25  26  27 0
 3-21G
 ****
 35  36  37  38  39  40  41  42  43  44  45 0
 3-21G
 ****


