%nproc=1
%NoSave
%Mem=1900MB
#P OB98/GEN NMR

erre ene a

0 1
  C      -86.410    -787.826    -407.772
  O      -87.351    -788.884    -407.854
  P      -88.585    -788.728    -408.875
  C      -90.910    -787.510    -408.758
  O      -89.654    -787.775    -408.154
  C      -91.538    -786.253    -408.131
  O      -92.174    -786.614    -406.879
  C      -90.542    -785.121    -407.836
  O      -91.235    -783.887    -408.067
  C      -90.259    -785.300    -406.357
  O      -89.765    -784.117    -405.744
  C      -91.631    -785.753    -405.851
  N      -91.587    -786.453    -404.567
  C      -91.466    -785.682    -403.408
  O      -91.375    -784.442    -403.419
  N      -91.420    -786.374    -402.227
  C      -91.418    -787.747    -402.105
  O      -91.357    -788.318    -401.020
  C      -91.501    -788.512    -403.356
  C      -91.586    -787.837    -404.516
  O      -89.239    -790.188    -408.790
  O      -88.180    -788.297    -410.253
  H      -89.180    -790.582    -407.903
  H      -89.477    -784.342    -404.848
  H      -91.369    -785.844    -401.366
  H      -91.486    -789.583    -403.290
  H      -91.647    -788.375    -405.454
  H      -92.307    -784.883    -405.780
  H      -89.503    -786.094    -406.226
  H      -89.646    -785.177    -408.472
  H      -92.340    -785.901    -408.812
  H      -91.576    -788.362    -408.593
  H      -90.776    -787.383    -409.831
  P      -90.453    -782.723    -408.881
  C      -88.416    -781.161    -408.365
  O      -89.178    -782.293    -408.014
  O      -91.472    -781.499    -408.667
  O      -90.211    -783.024    -410.337
  H      -91.748    -781.393    -407.745
  H      -87.826    -780.843    -407.492
  H      -89.032    -780.333    -408.698
  H      -87.720    -781.430    -409.168
  H      -85.655    -788.075    -407.056
  H      -86.908    -786.929    -407.468
  H      -85.958    -787.676    -408.730

 3  4  5  6  7  8  9  10  11  12  13  24  28  29  30  31  32 0
 6-311+G(2d,p)
 ****
 33  34 0
 6-311+G(2d,p)
 ****
 1  2  14  15  16  17  18  19  20  21  22  23  25  26  27 0
 3-21G
 ****
 35  36  37  38  39  40  41  42  43  44  45 0
 3-21G
 ****


