%nproc=1
%NoSave
%Mem=1900MB
#P OB98/GEN NMR

erre ene a

0 1
  C       57.149     -95.691    -214.726
  O       57.353     -95.012    -213.504
  H       56.370     -96.444    -214.579
  H       58.068     -96.197    -215.030
  H       56.824     -94.999    -215.506
  P       58.346     -93.756    -213.470
  C       57.204     -92.447    -211.562
  O       58.346     -93.189    -211.967
  C       56.125     -93.378    -210.998
  O       56.693     -94.133    -209.897
  C       54.890     -92.641    -210.473
  O       53.725     -93.411    -210.770
  C       55.113     -92.604    -208.974
  O       53.891     -92.511    -208.247
  C       55.870     -93.909    -208.736
  N       56.218     -95.420    -203.928
  C       55.292     -95.745    -204.898
  N       54.298     -96.582    -204.532
  N       55.333     -95.287    -206.122
  C       56.395     -94.477    -206.355
  C       57.377     -94.079    -205.480
  C       57.308     -94.578    -204.122
  O       58.090     -94.312    -203.216
  N       58.273     -93.235    -206.087
  C       57.831     -93.122    -207.325
  N       56.687     -93.846    -207.535
  O       58.095     -92.725    -214.525
  O       59.802     -94.399    -213.614
  H       54.114     -92.620    -207.296
  H       60.161     -94.255    -214.509
  H       56.133     -95.792    -202.998
  H       58.294     -92.529    -208.103
  H       55.196     -94.767    -208.618
  H       55.733     -91.737    -208.713
  H       54.219     -96.992    -203.613
  H       54.790     -91.645    -210.901
  H       53.623     -96.861    -205.232
  H       55.851     -94.102    -211.774
  H       56.811     -91.917    -212.435
  H       57.500     -91.712    -210.805
  P       52.911     -93.104    -212.119
  C       51.647     -95.338    -212.011
  O       51.531     -93.924    -212.088
  O       53.694     -93.235    -213.382
  O       52.424     -91.591    -211.901
  H       52.422     -91.133    -212.766
  H       50.671     -95.776    -211.997
  H       52.171     -95.605    -211.117
  H       52.187     -95.698    -212.862

 6  7  8  9  10  11  12  13  14  15  26  29  33  34 0
 6-311+G(2d,p)
 ****
 36  38  39  40  41 0
 6-311+G(2d,p)
 ****
 1  2  3  4  5  16  17  18  19  20  21  22  23  24  25 0
 3-21G
 ****
 27  28  30  31  32  35  37  42  43  44  45  46  47 0
 3-21G
 ****
 48  49 0
 3-21G
 ****


