%nproc=1
%NoSave
%Mem=1900MB
#P OB98/GEN NMR

erre ene a

0 1
  C      134.056    -187.677    -180.304
  O      132.826    -187.646    -181.001
  H      134.385    -186.660    -180.075
  H      133.916    -188.222    -179.368
  H      134.817    -188.189    -180.901
  P      132.827    -186.910    -182.427
  C      132.792    -189.320    -183.388
  O      133.318    -188.006    -183.493
  C      133.444    -190.231    -184.424
  O      133.058    -191.601    -184.197
  C      133.062    -189.930    -185.870
  O      133.795    -188.831    -186.392
  C      133.457    -191.235    -186.544
  O      134.881    -191.261    -186.758
  C      133.064    -192.273    -185.483
  N      130.157    -194.856    -188.810
  C      131.454    -194.478    -188.848
  N      132.163    -193.812    -187.915
  C      131.399    -193.549    -186.841
  C      130.072    -193.887    -186.646
  C      129.438    -194.570    -187.695
  N      128.090    -194.892    -187.672
  N      129.626    -193.435    -185.419
  C      130.663    -192.813    -184.895
  N      131.760    -192.863    -185.713
  O      134.074    -185.908    -182.308
  O      131.568    -186.190    -182.771
  H      135.296    -191.146    -185.882
  H      133.748    -185.022    -182.060
  H      131.992    -194.743    -189.752
  H      130.664    -192.316    -183.933
  H      133.790    -193.091    -185.417
  H      132.979    -191.375    -187.519
  H      131.982    -189.784    -185.976
  H      134.533    -190.169    -184.290
  H      131.711    -189.294    -183.560
  H      127.664    -194.932    -188.594
  H      127.561    -194.424    -186.946
  H      132.984    -189.695    -182.379
  P      133.226    -188.113    -187.710
  C      131.764    -186.408    -186.426
  O      131.786    -187.515    -187.317
  O      132.878    -189.349    -188.665
  O      134.164    -187.165    -188.372
  H      133.348    -189.251    -189.516
  H      130.751    -186.112    -186.250
  H      132.304    -185.592    -186.858
  H      132.220    -186.687    -185.499

 6  7  8  9  10  11  12  13  14  15  25  28  32  33  34  35 0
 6-311+G(2d,p)
 ****
 36  39  40 0
 6-311+G(2d,p)
 ****
 1  2  3  4  5  16  17  18  19  20  21  22  23  24 0
 3-21G
 ****
 26  27  29  30  31  37  38  41  42  43  44  45  46  47  48 0
 3-21G
 ****


