%nproc=1
%NoSave
%Mem=1900MB
#P OB98/GEN NMR

erre ene a

0 1
  C      461.098    -210.740     -85.818
  O      460.590    -211.867     -86.506
  H      461.087    -210.952     -84.745
  H      460.482    -209.858     -86.007
  H      462.128    -210.550     -86.124
  P      460.245    -211.709     -88.066
  C      458.038    -212.104     -89.342
  O      458.637    -211.631     -88.141
  C      456.674    -212.742     -89.072
  O      456.810    -213.892     -88.211
  C      455.699    -211.829     -88.345
  O      455.266    -210.711     -89.090
  C      454.667    -212.824     -87.831
  O      453.701    -213.168     -88.821
  C      455.556    -214.047     -87.509
  N      455.763    -214.223     -86.074
  C      455.327    -215.430     -85.542
  O      454.775    -216.311     -86.204
  N      455.514    -215.590     -84.198
  C      456.043    -214.663     -83.348
  O      456.170    -214.859     -82.141
  C      456.453    -213.388     -83.962
  C      456.299    -213.230     -85.282
  O      460.845    -212.742     -88.971
  O      460.694    -210.211     -88.409
  H      453.212    -212.353     -89.036
  H      460.760    -210.073     -89.384
  H      455.220    -216.466     -83.789
  H      456.863    -212.626     -83.315
  H      456.594    -212.300     -85.757
  H      455.097    -214.966     -87.899
  H      454.120    -212.440     -86.966
  H      456.202    -211.420     -87.460
  H      456.264    -213.084     -90.026
  H      458.707    -212.856     -89.779
  H      457.933    -211.273     -90.051
  P      455.258    -209.221     -88.528
  C      453.537    -207.639     -87.359
  O      453.833    -208.940     -87.849
  O      455.831    -208.166     -89.420
  O      456.226    -209.354     -87.240
  H      456.710    -208.504     -87.157
  H      452.552    -207.631     -86.942
  H      453.590    -206.935     -88.163
  H      454.246    -207.372     -86.604

 6  7  8  9  10  11  12  13  14  15  16  26  31  32  33  34  35 0
 6-311+G(2d,p)
 ****
 36  37 0
 6-311+G(2d,p)
 ****
 1  2  3  4  5  17  18  19  20  21  22  23  24  25 0
 3-21G
 ****
 27  28  29  30  38  39  40  41  42  43  44  45 0
 3-21G
 ****


