%nproc=1
%NoSave
%Mem=1900MB
#P OB98/GEN NMR

erre ene a

0 1
  C      441.468    -152.580    -179.431
  O      442.252    -152.688    -178.266
  P      441.928    -151.813    -176.963
  C      443.480    -150.006    -177.948
  O      442.214    -150.278    -177.354
  C      444.496    -149.602    -176.871
  O      445.666    -149.004    -177.536
  C      443.937    -148.561    -175.878
  O      444.076    -148.930    -174.500
  C      444.642    -147.279    -176.297
  O      444.679    -146.290    -175.281
  C      445.995    -147.816    -176.786
  N      446.730    -146.841    -177.591
  C      448.053    -146.584    -177.224
  O      448.631    -147.126    -176.287
  N      448.694    -145.616    -177.939
  C      448.126    -144.807    -178.892
  O      448.740    -143.894    -179.428
  C      446.719    -145.105    -179.209
  C      446.097    -146.106    -178.572
  O      442.593    -152.258    -175.707
  O      440.325    -151.841    -176.897
  H      443.796    -146.249    -174.873
  H      439.872    -151.475    -177.682
  H      449.645    -145.415    -177.694
  H      446.240    -144.474    -179.953
  H      445.059    -146.342    -178.782
  H      446.635    -148.127    -175.952
  H      444.095    -146.855    -177.140
  H      442.851    -148.433    -176.009
  H      444.818    -150.508    -176.355
  H      443.366    -149.188    -178.666
  H      443.826    -150.884    -178.510
  P      443.346    -148.190    -173.275
  C      445.346    -146.543    -173.036
  O      443.949    -146.713    -173.143
  O      443.313    -148.972    -171.999
  O      441.861    -147.940    -173.823
  H      441.233    -147.932    -173.078
  H      445.548    -145.630    -172.476
  H      445.789    -146.433    -174.031
  H      445.815    -147.382    -172.514
  H      441.848    -153.243    -180.179
  H      441.505    -151.574    -179.794
  H      440.455    -152.840    -179.205

 3  4  5  6  7  8  9  10  11  12  13  23  28  29  30  31  32 0
 6-311+G(2d,p)
 ****
 33  34 0
 6-311+G(2d,p)
 ****
 1  2  14  15  16  17  18  19  20  21  22  24  25  26  27 0
 3-21G
 ****
 35  36  37  38  39  40  41  42  43  44  45 0
 3-21G
 ****


