%nproc=1
%NoSave
%Mem=1900MB
#P OB98/GEN NMR

erre ene a

0 1
  C     -395.891    -273.993    -328.653
  O     -394.494    -273.938    -328.362
  P     -393.535    -275.078    -328.957
  C     -391.391    -273.756    -329.496
  O     -392.549    -274.396    -330.022
  C     -391.610    -272.247    -329.385
  O     -392.708    -271.931    -328.506
  C     -390.410    -271.507    -328.816
  O     -389.373    -271.410    -329.776
  C     -391.042    -270.188    -328.403
  O     -391.155    -269.298    -329.531
  C     -392.446    -270.631    -327.935
  N     -392.591    -270.643    -326.486
  C     -392.949    -269.427    -325.896
  O     -393.080    -268.414    -326.588
  N     -393.125    -269.383    -324.538
  C     -392.955    -270.458    -323.830
  N     -393.148    -270.359    -322.486
  C     -392.567    -271.756    -324.412
  C     -392.395    -271.774    -325.736
  O     -394.222    -276.319    -329.425
  O     -392.553    -275.390    -327.725
  H     -391.893    -268.690    -329.321
  H     -392.271    -276.324    -327.778
  H     -392.445    -272.627    -323.782
  H     -392.106    -272.686    -326.245
  H     -393.211    -269.955    -328.341
  H     -390.449    -269.670    -327.645
  H     -390.041    -272.034    -327.927
  H     -391.843    -271.861    -330.387
  H     -393.404    -269.454    -322.113
  H     -390.536    -273.962    -330.146
  H     -393.090    -271.150    -321.860
  H     -391.160    -274.194    -328.522
  P     -388.268    -272.570    -329.800
  C     -388.173    -273.209    -332.310
  O     -388.621    -273.555    -331.013
  O     -388.632    -273.440    -328.503
  O     -386.856    -272.092    -329.749
  H     -387.816    -273.798    -328.112
  H     -388.212    -274.106    -332.942
  H     -387.147    -272.836    -332.294
  H     -388.835    -272.453    -332.739
  H     -396.385    -273.167    -328.186
  H     -396.297    -274.910    -328.280
  H     -396.037    -273.943    -329.712

 3  4  5  6  7  8  9  10  11  12  13  23  27  28  29  30  32 0
 6-311+G(2d,p)
 ****
 34  35 0
 6-311+G(2d,p)
 ****
 1  2  14  15  16  17  18  19  20  21  22  24  25  26 0
 3-21G
 ****
 31  33  36  37  38  39  40  41  42  43  44  45  46 0
 3-21G
 ****


