%nproc=1
%NoSave
%Mem=1900MB
#P OB98/GEN NMR

erre ene a

0 1
  C       87.415     141.639     600.326
  O       87.557     140.262     600.614
  H       86.423     141.810     599.901
  H       88.168     141.952     599.595
  H       87.518     142.234     601.239
  P       88.917     139.808     601.330
  C       89.903     137.556     600.500
  O       88.928     138.203     601.313
  C       89.455     136.139     600.145
  O       89.500     135.314     601.343
  C       88.019     136.052     599.589
  O       87.994     135.007     598.604
  C       87.219     135.588     600.790
  O       85.988     134.969     600.425
  C       88.230     134.646     601.445
  N       88.132     130.971     604.886
  C       88.591     130.970     603.583
  N       89.106     129.808     603.121
  N       88.554     132.019     602.802
  C       88.051     133.115     603.406
  C       87.554     133.251     604.679
  C       87.577     132.077     605.526
  O       87.166     132.012     606.681
  N       87.097     134.533     604.904
  C       87.320     135.161     603.760
  N       87.892     134.346     602.826
  O       88.641     140.167     602.869
  O       90.162     140.463     600.822
  H       85.493     135.595     599.844
  H       88.985     141.056     603.074
  H       88.174     130.136     605.433
  H       87.074     136.198     603.570
  H       88.305     133.685     600.926
  H       86.991     136.438     601.448
  H       89.211     128.969     603.683
  H       87.650     136.981     599.152
  H       89.492     129.795     602.184
  H       90.176     135.716     599.434
  H       90.846     137.508     601.057
  H       90.056     138.143     599.589
  P       87.661     135.414     597.086
  C       86.582     133.142     596.377
  O       87.655     134.066     596.202
  O       89.008     136.141     596.606
  O       86.468     136.294     596.932
  H       88.801     136.790     595.912
  H       86.721     132.306     595.724
  H       85.655     133.624     596.146
  H       86.565     132.803     597.392

 6  7  8  9  10  11  12  13  14  15  26  29  33  34 0
 6-311+G(2d,p)
 ****
 36  38  39  40  41 0
 6-311+G(2d,p)
 ****
 1  2  3  4  5  16  17  18  19  20  21  22  23  24  25 0
 3-21G
 ****
 27  28  30  31  32  35  37  42  43  44  45  46  47 0
 3-21G
 ****
 48  49 0
 3-21G
 ****


