%nproc=1
%NoSave
%Mem=1900MB
#P OB98/GEN NMR

erre ene a

0 1
  C      210.391    -118.979    -176.410
  O      211.339    -119.959    -176.040
  H      209.997    -118.513    -175.502
  H      209.560    -119.427    -176.963
  H      210.868    -118.207    -177.021
  P      211.871    -120.962    -177.178
  C      210.590    -122.376    -178.919
  O      210.600    -121.855    -177.590
  C      210.063    -123.813    -178.941
  O      211.014    -124.700    -178.314
  C      208.770    -124.003    -178.162
  O      207.646    -123.389    -178.754
  C      208.759    -125.504    -177.907
  O      208.195    -126.258    -178.976
  C      210.271    -125.817    -177.786
  N      210.657    -126.130    -176.415
  C      211.804    -126.899    -176.267
  O      212.463    -127.326    -177.217
  N      212.156    -127.206    -174.981
  C      211.456    -126.868    -173.862
  O      211.803    -127.211    -172.735
  C      210.237    -126.074    -174.080
  C      209.897    -125.744    -175.329
  O      213.085    -121.767    -176.819
  O      212.078    -120.017    -178.451
  H      208.382    -127.199    -178.793
  H      212.648    -120.455    -179.129
  H      212.992    -127.756    -174.857
  H      209.657    -125.790    -173.213
  H      209.000    -125.161    -175.517
  H      210.528    -126.683    -178.411
  H      208.192    -125.752    -177.007
  H      208.891    -123.527    -177.182
  H      209.947    -124.123    -179.986
  H      211.622    -122.366    -179.287
  H      209.979    -121.735    -179.562
  P      206.552    -122.573    -177.922
  C      205.034    -123.115    -175.884
  O      205.722    -123.619    -177.026
  O      205.805    -121.508    -178.656
  O      207.477    -121.841    -176.820
  H      207.076    -120.971    -176.631
  H      204.530    -123.918    -175.388
  H      204.319    -122.382    -176.193
  H      205.737    -122.667    -175.213

 6  7  8  9  10  11  12  13  14  15  16  26  31  32  33  34  35 0
 6-311+G(2d,p)
 ****
 36  37 0
 6-311+G(2d,p)
 ****
 1  2  3  4  5  17  18  19  20  21  22  23  24  25 0
 3-21G
 ****
 27  28  29  30  38  39  40  41  42  43  44  45 0
 3-21G
 ****


