%nproc=1
%NoSave
%Mem=1900MB
#P OB98/GEN NMR

erre ene a

0 1
  C      715.055     440.369    1674.062
  O      715.640     439.216    1673.489
  H      714.754     441.039    1673.255
  H      715.771     440.888    1674.702
  H      714.161     440.093    1674.634
  P      716.274     438.119    1674.468
  C      718.725     438.786    1673.930
  O      717.735     437.769    1673.865
  C      720.067     438.266    1673.419
  O      720.520     437.184    1674.300
  C      720.017     437.689    1671.988
  O      721.317     437.906    1671.379
  C      719.788     436.224    1672.254
  O      720.021     435.447    1671.101
  C      720.709     436.006    1673.461
  N      720.415     434.785    1674.163
  C      720.819     433.586    1673.540
  O      721.376     433.633    1672.443
  N      720.560     432.404    1674.176
  C      719.900     432.389    1675.286
  N      719.649     431.166    1675.844
  C      719.409     433.604    1675.955
  C      719.693     434.768    1675.370
  O      715.427     436.921    1674.745
  O      716.616     438.931    1675.801
  H      720.979     435.481    1670.847
  H      715.951     438.722    1676.489
  H      718.833     433.542    1676.877
  H      719.393     435.722    1675.769
  H      721.776     435.988    1673.139
  H      718.742     436.037    1672.537
  H      719.224     438.162    1671.371
  H      720.826     439.105    1673.502
  H      719.999     430.358    1675.336
  H      718.821     439.103    1674.974
  H      719.124     431.027    1676.714
  H      718.397     439.659    1673.327
  P      721.684     439.240    1670.544
  C      722.025     437.783    1668.432
  O      722.544     438.842    1669.276
  O      722.304     440.335    1671.388
  O      720.293     439.741    1669.912
  H      720.314     440.706    1669.845
  H      722.698     437.614    1667.617
  H      721.067     438.068    1668.051
  H      721.928     436.885    1669.006

 6  7  8  9  10  11  12  13  14  15  16  26  30  31  32  33  35 0
 6-311+G(2d,p)
 ****
 37  38 0
 6-311+G(2d,p)
 ****
 1  2  3  4  5  17  18  19  20  21  22  23  24  25 0
 3-21G
 ****
 27  28  29  34  36  39  40  41  42  43  44  45  46 0
 3-21G
 ****


