%nproc=1
%NoSave
%Mem=1900MB
#P OB98/GEN NMR

erre ene a

0 1
  C     -502.554     721.411    -898.900
  O     -501.367     722.185    -898.950
  H     -502.647     720.934    -897.920
  H     -503.410     722.072    -899.050
  H     -502.547     720.648    -899.680
  P     -499.979     721.399    -898.760
  C     -499.995     721.341    -896.160
  O     -499.399     721.873    -897.330
  C     -498.934     721.230    -895.060
  O     -497.843     720.366    -895.470
  C     -498.280     722.583    -894.690
  O     -499.082     723.330    -893.800
  C     -497.014     722.072    -894.000
  O     -497.322     721.630    -892.660
  C     -496.620     720.872    -894.890
  N     -491.795     720.438    -896.580
  C     -492.426     720.013    -895.460
  N     -493.696     720.169    -895.070
  C     -494.372     720.872    -895.990
  C     -493.905     721.400    -897.180
  C     -492.533     721.151    -897.470
  N     -491.899     721.608    -898.620
  N     -494.881     722.077    -897.850
  C     -495.960     721.938    -897.100
  N     -495.685     721.240    -895.950
  O     -499.003     722.115    -899.810
  O     -500.041     719.913    -898.950
  H     -498.214     721.241    -892.690
  H     -498.238     721.522    -900.000
  H     -491.771     719.437    -894.760
  H     -496.943     722.361    -897.340
  H     -496.156     720.046    -894.320
  H     -496.249     722.844    -893.910
  H     -498.006     723.152    -895.580
  H     -499.411     720.796    -894.160
  H     -500.392     720.333    -896.370
  H     -490.898     721.546    -898.640
  H     -492.417     722.268    -899.180
  H     -500.814     721.993    -895.840
  P     -499.473     724.822    -894.260
  C     -497.910     725.922    -892.500
  O     -499.252     725.769    -892.980
  O     -501.083     724.752    -894.400
  O     -498.832     725.276    -895.550
  H     -501.417     725.413    -895.040
  H     -497.907     726.573    -891.651
  H     -497.300     726.341    -893.273
  H     -497.521     724.966    -892.218

 6  7  8  9  10  11  12  13  14  15  25  28  32  33  34  35 0
 6-311+G(2d,p)
 ****
 36  39  40 0
 6-311+G(2d,p)
 ****
 1  2  3  4  5  16  17  18  19  20  21  22  23  24 0
 3-21G
 ****
 26  27  29  30  31  37  38  41  42  43  44  45  46  47 0
 3-21G
 ****
 48 0
 3-21G
 ****


