%nproc=1
%NoSave
%Mem=1900MB
#P OB98/GEN NMR

erre ene a

0 1
  C      662.521    -506.346     261.137
  O      663.148    -506.366     262.400
  P      664.554    -505.627     262.614
  C      666.740    -505.423     261.262
  O      665.516    -506.143     261.443
  C      667.916    -506.402     261.199
  O      667.641    -507.484     260.277
  C      669.208    -505.770     260.674
  O      669.815    -504.777     261.471
  C      670.024    -507.012     260.357
  O      670.638    -507.537     261.542
  C      668.932    -507.985     259.845
  N      668.991    -508.136     258.379
  C      670.094    -508.824     257.887
  O      670.973    -509.300     258.594
  N      670.153    -508.933     256.522
  C      669.271    -508.400     255.633
  O      669.417    -508.506     254.414
  C      668.147    -507.658     256.214
  C      668.049    -507.557     257.550
  O      665.135    -505.755     263.983
  O      664.255    -504.121     262.173
  H      671.240    -506.857     261.892
  H      663.959    -504.014     261.248
  H      670.951    -509.429     256.143
  H      667.418    -507.227     255.533
  H      667.222    -507.027     258.007
  H      669.065    -508.973     260.285
  H      670.834    -506.795     259.650
  H      668.981    -505.286     259.719
  H      668.056    -506.837     262.200
  H      666.877    -504.747     262.121
  H      666.674    -504.814     260.362
  P      670.754    -503.627     260.867
  C      672.971    -503.511     259.518
  O      671.980    -504.328     260.110
  O      671.078    -502.480     261.768
  O      669.875    -503.092     259.642
  H      670.061    -502.146     259.503
  H      673.701    -504.148     259.009
  H      673.493    -502.927     260.277
  H      672.517    -502.837     258.779
  H      661.600    -506.887     261.188
  H      663.163    -506.802     260.413
  H      662.325    -505.333     260.852

 3  4  5  6  7  8  9  10  11  12  13  23  28  29  30  31  32 0
 6-311+G(2d,p)
 ****
 33  34 0
 6-311+G(2d,p)
 ****
 1  2  14  15  16  17  18  19  20  21  22  24  25  26  27 0
 3-21G
 ****
 35  36  37  38  39  40  41  42  43  44  45 0
 3-21G
 ****


