%nproc=1
%NoSave
%Mem=1900MB
#P OB98/GEN NMR

erre ene a

0 1
  C       77.427    -158.745    -123.334
  O       77.779    -157.367    -123.180
  P       76.638    -156.368    -122.649
  C       74.670    -155.109    -123.827
  O       75.900    -155.804    -123.960
  C       74.341    -154.338    -125.110
  O       75.363    -153.325    -125.354
  C       74.238    -155.210    -126.369
  O       73.180    -154.660    -127.170
  C       75.576    -154.995    -127.046
  O       75.527    -155.294    -128.435
  C       75.832    -153.523    -126.708
  N       77.235    -153.143    -126.851
  C       77.744    -153.089    -128.145
  O       77.093    -153.416    -129.134
  N       79.050    -152.687    -128.255
  C       79.896    -152.418    -127.218
  O       81.058    -152.062    -127.375
  C       79.332    -152.603    -125.871
  C       78.052    -152.953    -125.755
  O       77.511    -155.139    -122.123
  O       75.745    -156.995    -121.629
  H       78.295    -154.957    -122.672
  H       76.371    -155.026    -128.848
  H       79.430    -152.610    -129.189
  H       79.992    -152.455    -125.023
  H       77.614    -153.120    -124.780
  H       75.231    -152.872    -127.357
  H       76.336    -155.635    -126.579
  H       74.022    -156.259    -126.141
  H       73.393    -153.803    -124.950
  H       74.731    -154.400    -122.996
  H       73.878    -155.823    -123.579
  P       71.776    -155.447    -127.218
  C       70.764    -157.333    -128.730
  O       71.840    -156.459    -128.457
  O       70.817    -154.276    -127.762
  O       71.316    -156.005    -125.909
  H       71.192    -153.805    -128.522
  H       70.904    -157.757    -129.729
  H       69.813    -156.801    -128.709
  H       70.754    -158.147    -128.001
  H       78.274    -159.292    -123.692
  H       76.624    -158.832    -124.036
  H       77.119    -159.142    -122.389

 3  4  5  6  7  8  9  10  11  12  13  24  28  29  30  31  32 0
 6-311+G(2d,p)
 ****
 33  34 0
 6-311+G(2d,p)
 ****
 1  2  14  15  16  17  18  19  20  21  22  23  25  26  27 0
 3-21G
 ****
 35  36  37  38  39  40  41  42  43  44  45 0
 3-21G
 ****


