%nproc=1
%NoSave
%Mem=1900MB
#P OB98/GEN NMR

erre ene a

0 1
  C       87.009     201.629     -74.969
  O       86.576     200.288     -74.856
  H       86.378     202.283     -74.361
  H       88.038     201.697     -74.606
  H       86.982     201.951     -76.015
  P       85.088     199.970     -75.369
  C       82.713     200.138     -74.334
  O       84.109     200.328     -74.147
  C       81.955     200.556     -73.078
  O       82.301     201.909     -72.711
  C       80.435     200.543     -73.215
  O       79.903     199.232     -73.086
  C       80.037     201.425     -72.042
  O       80.093     200.663     -70.821
  C       81.146     202.488     -72.050
  N       78.978     207.098     -71.555
  C       79.275     206.140     -70.649
  N       79.872     204.946     -70.856
  C       80.186     204.791     -72.152
  C       79.969     205.688     -73.186
  C       79.325     206.891     -72.851
  N       78.964     207.839     -73.797
  N       80.415     205.169     -74.385
  C       80.878     203.974     -74.083
  N       80.769     203.706     -72.744
  O       85.066     198.367     -75.421
  O       84.728     200.572     -76.687
  H       79.474     199.917     -70.926
  H       85.243     198.074     -76.333
  H       78.994     206.358     -69.626
  H       81.295     203.273     -74.793
  H       81.461     202.766     -71.037
  H       79.022     201.824     -72.129
  H       80.113     201.020     -74.148
  H       82.275     199.899     -72.256
  H       82.513     199.081     -74.543
  H       78.146     208.380     -73.536
  H       79.009     207.509     -74.755
  H       82.391     200.739     -75.189
  P       78.371     199.005     -73.503
  C       76.103     199.523     -72.372
  O       77.483     199.848     -72.464
  O       78.113     197.483     -73.079
  O       78.064     199.223     -74.944
  H       77.795     196.974     -73.852
  H       75.635     200.157     -71.648
  H       75.996     198.501     -72.074
  H       75.638     199.667     -73.325

 6  7  8  9  10  11  12  13  14  15  25  28  32  33  34  35 0
 6-311+G(2d,p)
 ****
 36  39  40 0
 6-311+G(2d,p)
 ****
 1  2  3  4  5  16  17  18  19  20  21  22  23  24 0
 3-21G
 ****
 26  27  29  30  31  37  38  41  42  43  44  45  46  47  48 0
 3-21G
 ****


