%nproc=1
%NoSave
%Mem=1900MB
#P OB98/GEN NMR

erre ene a

0 1
  C     -552.398     855.372    -636.448
  O     -552.198     854.007    -636.169
  H     -551.888     855.617    -637.384
  H     -551.976     855.981    -635.646
  H     -553.463     855.604    -636.560
  P     -553.169     853.276    -635.131
  C     -554.170     851.807    -637.000
  O     -554.438     852.729    -635.956
  C     -555.146     850.628    -636.991
  O     -555.020     849.898    -635.745
  C     -556.606     851.079    -637.061
  O     -557.092     851.325    -638.373
  C     -557.328     849.903    -636.424
  O     -557.593     848.871    -637.395
  C     -556.326     849.414    -635.378
  N     -559.967     850.195    -631.869
  C     -560.098     849.803    -633.191
  N     -561.354     849.655    -633.642
  N     -559.080     849.594    -633.986
  C     -557.875     849.869    -633.427
  C     -557.621     850.272    -632.133
  C     -558.752     850.450    -631.239
  O     -558.686     850.804    -630.067
  N     -556.280     850.452    -631.918
  C     -555.734     850.225    -633.094
  N     -556.663     849.843    -634.033
  O     -553.806     854.490    -634.295
  O     -552.519     852.279    -634.224
  H     -558.057     849.273    -638.151
  H     -554.070     854.180    -633.409
  H     -560.777     850.310    -631.293
  H     -554.670     850.301    -633.320
  H     -556.269     848.315    -635.359
  H     -558.301     850.197    -636.010
  H     -562.169     849.921    -633.105
  H     -556.765     851.961    -636.442
  H     -561.502     849.636    -634.659
  H     -554.895     849.936    -637.804
  H     -553.148     851.448    -636.857
  H     -554.199     852.314    -637.973
  P     -558.450     852.151    -638.580
  C     -557.606     854.277    -639.823
  O     -558.056     853.706    -638.612
  O     -559.186     851.974    -637.165
  O     -559.297     851.686    -639.710
  H     -559.833     851.245    -637.213
  H     -557.388     855.313    -639.669
  H     -558.368     854.179    -640.568
  H     -556.721     853.771    -640.149

 6  7  8  9  10  11  12  13  14  15  26  29  33  34 0
 6-311+G(2d,p)
 ****
 36  38  39  40  41 0
 6-311+G(2d,p)
 ****
 1  2  3  4  5  16  17  18  19  20  21  22  23  24  25 0
 3-21G
 ****
 27  28  30  31  32  35  37  42  43  44  45  46  47 0
 3-21G
 ****
 48  49 0
 3-21G
 ****


