%nproc=1
%NoSave
%Mem=1900MB
#P OB98/GEN NMR

erre ene a

0 1
  C     -424.277    1191.270     840.946
  O     -424.271    1192.373     840.019
  P     -425.037    1192.334     838.603
  C     -423.391    1194.001     837.522
  O     -424.741    1193.712     837.843
  C     -423.287    1195.296     836.702
  O     -424.220    1195.267     835.585
  C     -423.649    1196.564     837.448
  O     -422.656    1196.955     838.377
  C     -423.850    1197.551     836.298
  O     -422.609    1198.120     835.864
  C     -424.433    1196.632     835.181
  N     -425.830    1196.885     834.908
  C     -426.128    1198.053     834.217
  O     -425.244    1198.872     833.945
  N     -427.447    1198.298     833.863
  C     -428.369    1197.492     834.257
  N     -429.644    1197.772     833.861
  C     -428.116    1196.316     835.106
  C     -426.832    1196.068     835.387
  O     -426.491    1191.997     838.713
  O     -424.269    1191.231     837.745
  H     -424.880    1190.855     837.066
  H     -422.168    1198.481     836.672
  H     -428.922    1195.680     835.447
  H     -426.552    1195.213     835.995
  H     -423.846    1196.750     834.269
  H     -424.511    1198.375     836.567
  H     -424.607    1196.410     837.970
  H     -422.260    1195.360     836.311
  H     -429.778    1198.584     833.281
  H     -422.991    1193.170     836.927
  H     -430.440    1197.189     834.100
  H     -422.800    1194.074     838.440
  P     -423.100    1197.089     839.914
  C     -421.182    1198.803     840.262
  O     -421.841    1197.657     840.738
  O     -423.234    1195.580     840.414
  O     -424.375    1197.858     840.122
  H     -424.018    1195.494     840.996
  H     -420.730    1199.333     841.119
  H     -421.867    1199.499     839.771
  H     -420.395    1198.531     839.562
  H     -423.703    1191.528     841.811
  H     -423.848    1190.409     840.478
  H     -425.284    1191.054     841.237

 3  4  5  6  7  8  9  10  11  12  13  24  27  28  29  30  32 0
 6-311+G(2d,p)
 ****
 34  35 0
 6-311+G(2d,p)
 ****
 1  2  14  15  16  17  18  19  20  21  22  23  25  26 0
 3-21G
 ****
 31  33  36  37  38  39  40  41  42  43  44  45  46 0
 3-21G
 ****


