%nproc=1
%NoSave
%Mem=1900MB
#P OB98/GEN NMR

erre ene a

0 1
  C     1380.567    -362.021     203.576
  O     1379.483    -361.828     204.459
  P     1378.001    -361.475     203.914
  C     1377.082    -359.530     202.520
  O     1378.118    -359.963     203.392
  C     1377.473    -358.214     201.850
  O     1378.655    -358.460     201.043
  C     1376.458    -357.608     200.896
  O     1375.464    -356.813     201.513
  C     1377.349    -356.733     200.033
  O     1377.652    -355.506     200.739
  C     1378.595    -357.564     199.881
  N     1378.622    -357.368     194.765
  C     1378.653    -356.406     195.708
  N     1378.636    -356.527     197.051
  C     1378.598    -357.831     197.411
  C     1378.562    -358.925     196.545
  C     1378.590    -358.655     195.169
  N     1378.561    -359.647     194.216
  N     1378.525    -360.096     197.287
  C     1378.549    -359.717     198.526
  N     1378.614    -358.356     198.674
  O     1376.911    -361.751     204.887
  O     1377.883    -362.327     202.556
  H     1376.811    -355.033     200.829
  H     1376.927    -362.367     202.301
  H     1378.700    -355.383     195.340
  H     1378.542    -360.386     199.398
  H     1379.531    -356.971     199.926
  H     1376.877    -356.425     199.087
  H     1375.989    -358.376     200.244
  H     1377.763    -357.496     202.633
  H     1376.191    -359.354     203.127
  H     1378.689    -359.371     193.245
  H     1378.684    -360.605     194.518
  H     1376.852    -360.293     201.781
  P     1374.277    -356.251     200.582
  C     1374.350    -354.875     198.355
  O     1374.960    -355.217     199.579
  O     1373.097    -355.733     201.317
  O     1373.933    -357.504     199.645
  H     1374.650    -357.760     199.024
  H     1374.888    -354.021     197.920
  H     1373.321    -354.536     198.547
  H     1374.352    -355.699     197.673
  H     1381.450    -362.243     204.138
  H     1380.724    -361.131     203.004
  H     1380.349    -362.835     202.917

 3  4  5  6  7  8  9  10  11  12  22  25  29  30  31  32 0
 6-311+G(2d,p)
 ****
 33  36  37 0
 6-311+G(2d,p)
 ****
 1  2  13  14  15  16  17  18  19  20  21  23  24  26 0
 3-21G
 ****
 27  28  34  35  38  39  40  41  42  43  44  45  46  47  48 0
 3-21G
 ****


