%nproc=1
%NoSave
%Mem=1900MB
#P OB98/GEN NMR

erre ene a

0 1
  C      -43.934    -182.924     -77.902
  O      -44.534    -183.610     -78.987
  P      -45.716    -182.879     -79.783
  C      -48.211    -182.293     -79.352
  O      -47.029    -182.908     -78.858
  C      -49.384    -182.517     -78.398
  O      -49.010    -182.097     -77.060
  C      -50.646    -181.741     -78.783
  O      -51.805    -182.511     -78.426
  C      -50.609    -180.528     -77.873
  O      -51.909    -179.973     -77.685
  C      -49.992    -181.141     -76.614
  N      -50.894    -177.233     -73.535
  C      -51.768    -178.184     -74.024
  N      -53.072    -178.019     -73.715
  N      -51.395    -179.211     -74.742
  C      -50.060    -179.245     -74.976
  C      -49.093    -178.370     -74.532
  C      -49.520    -177.233     -73.748
  O      -48.802    -176.339     -73.310
  N      -47.842    -178.755     -74.943
  C      -48.052    -179.832     -75.672
  N      -49.384    -180.150     -75.749
  O      -46.058    -183.921     -80.952
  O      -45.359    -181.546     -80.345
  H      -52.518    -180.724     -77.547
  H      -45.703    -183.592     -81.800
  H      -51.231    -176.454     -72.995
  H      -47.284    -180.403     -76.179
  H      -50.739    -181.685     -76.024
  H      -49.962    -179.756     -78.302
  H      -53.432    -177.214     -73.224
  H      -50.709    -181.469     -79.843
  H      -53.738    -178.676     -74.099
  H      -49.592    -183.594     -78.347
  H      -48.454    -182.719     -80.326
  H      -48.034    -181.220     -79.486
  P      -52.973    -182.576     -79.526
  C      -54.784    -180.894     -80.348
  O      -53.689    -181.142     -79.490
  O      -54.052    -183.555     -78.863
  O      -52.525    -183.048     -80.870
  H      -54.588    -183.985     -79.554
  H      -55.672    -180.704     -79.738
  H      -54.987    -181.734     -81.017
  H      -54.569    -180.008     -80.949
  H      -43.167    -183.535     -77.474
  H      -44.676    -182.711     -77.161
  H      -43.506    -182.008     -78.252

 3  4  5  6  7  8  9  10  11  12  23  26  30  31 0
 6-311+G(2d,p)
 ****
 33  35  36  37  38 0
 6-311+G(2d,p)
 ****
 1  2  13  14  15  16  17  18  19  20  21  22  24  25 0
 3-21G
 ****
 27  28  29  32  34  39  40  41  42  43  44  45  46  47  48  49 0
 3-21G
 ****


