%nproc=1
%NoSave
%Mem=1900MB
#P OB98/GEN NMR

erre ene a

0 1
  C      -81.172      51.632      -4.890
  O      -82.367      51.119      -4.330
  P      -82.837      49.628      -4.671
  C      -83.805      50.371      -6.969
  O      -82.926      49.518      -6.268
  C      -83.950      49.935      -8.433
  O      -82.621      49.854      -9.006
  C      -84.575      48.558      -8.633
  O      -85.028      48.457      -9.986
  C      -83.387      47.644      -8.427
  O      -83.593      46.354      -8.993
  C      -82.223      48.462      -9.042
  N      -80.968      48.268      -8.292
  C      -79.985      47.490      -8.899
  O      -80.098      47.039     -10.038
  N      -78.906      47.177      -8.120
  C      -78.751      47.524      -6.809
  O      -77.950      46.989      -6.050
  C      -79.695      48.534      -6.305
  C      -80.762      48.837      -7.049
  O      -84.366      49.621      -4.200
  O      -82.046      48.552      -4.007
  H      -83.554      46.463      -9.972
  H      -84.441      49.246      -3.303
  H      -78.264      46.496      -8.509
  H      -79.520      48.949      -5.321
  H      -81.503      49.541      -6.679
  H      -82.040      48.175     -10.085
  H      -83.222      47.509      -7.350
  H      -85.391      48.331      -7.942
  H      -84.510      50.698      -8.987
  H      -83.437      51.400      -6.908
  H      -84.795      50.369      -6.499
  P      -86.482      47.830     -10.245
  C      -85.200      45.860     -11.285
  O      -86.263      46.252     -10.437
  O      -87.304      48.497     -11.294
  O      -87.173      47.915      -8.800
  H      -88.141      47.843      -8.895
  H      -84.825      44.888     -10.953
  H      -84.381      46.585     -11.261
  H      -85.573      45.766     -12.308
  H      -81.022      52.636      -4.551
  H      -81.246      51.623      -5.957
  H      -80.346      51.025      -4.584

 3  4  5  6  7  8  9  10  11  12  13  23  28  29  30  31  32 0
 6-311+G(2d,p)
 ****
 33  34 0
 6-311+G(2d,p)
 ****
 1  2  14  15  16  17  18  19  20  21  22  24  25  26  27 0
 3-21G
 ****
 35  36  37  38  39  40  41  42  43  44  45 0
 3-21G
 ****


