%nproc=1
%NoSave
%Mem=1900MB
#P OB98/GEN NMR

erre ene a

0 1
  C      -71.590    -876.076      98.251
  O      -71.977    -875.810      96.915
  H      -72.025    -877.030      98.562
  H      -71.966    -875.282      98.905
  H      -70.499    -876.137      98.347
  P      -71.146    -874.740      96.071
  C      -70.651    -872.205      96.211
  O      -71.454    -873.283      96.682
  C      -71.178    -870.852      96.699
  O      -71.461    -870.903      98.109
  C      -70.145    -869.735      96.506
  O      -70.122    -869.138      95.225
  C      -70.594    -868.719      97.563
  O      -71.630    -867.865      97.048
  C      -71.144    -869.611      98.682
  N      -68.329    -867.353     102.299
  C      -69.099    -866.779     101.318
  N      -69.071    -865.421     101.248
  N      -69.811    -867.464     100.457
  C      -69.678    -868.796     100.595
  C      -68.933    -869.492     101.523
  C      -68.186    -868.723     102.495
  O      -67.476    -869.182     103.392
  N      -69.029    -870.856     101.349
  C      -69.769    -870.981     100.266
  N      -70.210    -869.774      99.790
  O      -71.921    -874.689      94.666
  O      -69.694    -875.060      95.873
  H      -71.762    -867.133      97.679
  H      -71.305    -874.413      93.959
  H      -67.821    -866.770     102.952
  H      -70.048    -871.929      99.808
  H      -72.073    -869.210      99.097
  H      -69.771    -868.070      97.868
  H      -68.443    -864.857     101.801
  H      -69.141    -870.085      96.773
  H      -69.398    -864.991     100.387
  H      -72.117    -870.623      96.186
  H      -70.673    -872.250      95.124
  H      -69.605    -872.345      96.529
  P      -68.991    -868.061      94.864
  C      -68.521    -865.589      95.524
  O      -69.317    -866.738      95.701
  O      -69.357    -867.668      93.346
  O      -67.591    -868.561      94.977
  H      -68.816    -868.175      92.724
  H      -68.880    -864.805      96.158
  H      -68.573    -865.273      94.503
  H      -67.506    -865.816      95.776

 6  7  8  9  10  11  12  13  14  15  26  29  33  34 0
 6-311+G(2d,p)
 ****
 36  38  39  40  41 0
 6-311+G(2d,p)
 ****
 1  2  3  4  5  16  17  18  19  20  21  22  23  24  25 0
 3-21G
 ****
 27  28  30  31  32  35  37  42  43  44  45  46  47 0
 3-21G
 ****
 48  49 0
 3-21G
 ****


