%nproc=1
%NoSave
%Mem=1900MB
#P OB98/GEN NMR

erre ene a

0 1
  C       47.860     -24.973     120.905
  O       48.711     -24.358     121.864
  P       48.685     -24.939     123.362
  C       46.716     -23.334     123.906
  O       47.197     -24.674     123.901
  C       45.214     -23.305     124.171
  O       44.504     -23.920     123.080
  C       44.779     -24.056     125.420
  O       44.949     -23.285     126.598
  C       43.301     -24.263     125.131
  O       42.574     -23.054     125.415
  C       43.305     -24.536     123.623
  N       40.397     -28.727     123.279
  C       40.125     -27.475     123.705
  N       40.957     -26.416     123.776
  C       42.197     -26.758     123.387
  C       42.631     -28.004     122.965
  C       41.666     -29.021     122.906
  N       41.939     -30.289     122.444
  N       43.972     -27.968     122.651
  C       44.340     -26.724     122.868
  N       43.300     -25.951     123.305
  O       49.566     -23.878     124.174
  O       49.200     -26.329     123.508
  H       41.662     -23.189     125.091
  H       49.925     -24.293     124.982
  H       39.100     -27.298     124.020
  H       45.338     -26.338     122.717
  H       42.448     -24.081     123.115
  H       42.854     -25.054     125.741
  H       45.278     -25.031     125.493
  H       44.902     -22.253     124.227
  H       46.915     -22.880     122.931
  H       41.160     -30.902     122.260
  H       42.827     -30.445     121.982
  H       47.251     -22.766     124.673
  P       45.494     -24.057     127.896
  C       43.087     -24.225     128.859
  O       44.250     -24.909     128.436
  O       45.658     -22.885     128.972
  O       46.764     -24.807     127.672
  H       46.331     -23.125     129.637
  H       42.255     -24.933     128.893
  H       42.829     -23.417     128.168
  H       43.242     -23.815     129.861
  H       47.980     -24.488     119.959
  H       46.842     -24.886     121.224
  H       48.117     -26.007     120.811

 3  4  5  6  7  8  9  10  11  12  22  25  29  30  31  32 0
 6-311+G(2d,p)
 ****
 33  36  37 0
 6-311+G(2d,p)
 ****
 1  2  13  14  15  16  17  18  19  20  21  23  24  26 0
 3-21G
 ****
 27  28  34  35  38  39  40  41  42  43  44  45  46  47  48 0
 3-21G
 ****


