%nproc=1
%NoSave
%Mem=1900MB
#P OB98/GEN NMR

erre ene a

0 1
  C      362.314    -620.583     345.895
  O      362.357    -620.785     347.294
  H      361.592    -619.791     345.679
  H      361.991    -621.496     345.391
  H      363.293    -620.276     345.516
  P      363.460    -621.780     347.894
  C      362.202    -622.081     350.129
  O      362.712    -622.717     348.961
  C      361.345    -623.061     350.922
  O      360.124    -623.345     350.203
  C      362.006    -624.412     351.152
  O      362.997    -624.342     352.155
  C      360.795    -625.268     351.500
  O      360.432    -625.106     352.878
  C      359.707    -624.673     350.577
  N      359.471    -625.509     349.398
  C      358.288    -626.226     349.378
  O      357.446    -626.176     350.279
  N      358.105    -627.061     348.304
  C      359.049    -627.339     347.357
  O      358.948    -628.272     346.563
  C      360.259    -626.508     347.393
  C      360.423    -625.654     348.408
  O      364.713    -621.136     348.387
  O      363.754    -622.787     346.684
  H      364.596    -622.534     346.259
  H      361.140    -625.542     353.395
  H      357.264    -627.615     348.304
  H      361.003    -626.654     346.612
  H      361.326    -625.052     348.472
  H      358.762    -624.568     351.120
  H      360.986    -626.325     351.324
  H      362.437    -624.781     350.212
  H      361.073    -622.592     351.879
  H      361.596    -621.221     349.823
  H      363.046    -621.722     350.734
  P      364.495    -624.841     351.844
  C      364.536    -625.671     354.282
  O      364.879    -625.960     352.930
  O      365.507    -623.755     351.677
  O      364.344    -625.692     350.497
  H      365.015    -625.386     349.854
  H      364.839    -626.484     354.908
  H      363.477    -625.536     354.360
  H      365.034    -624.776     354.593

 6  7  8  9  10  11  12  13  14  15  16  27  31  32  33  34  35 0
 6-311+G(2d,p)
 ****
 36  37 0
 6-311+G(2d,p)
 ****
 1  2  3  4  5  17  18  19  20  21  22  23  24  25 0
 3-21G
 ****
 26  28  29  30  38  39  40  41  42  43  44  45 0
 3-21G
 ****


