%nproc=1
%NoSave
%Mem=1900MB
#P OB98/GEN NMR

erre ene a

0 1
  C      -26.121    1015.666      27.820
  O      -27.506    1015.376      27.844
  P      -28.182    1015.087      29.279
  C      -28.285    1012.518      28.883
  O      -29.008    1013.721      29.123
  C      -29.242    1011.328      28.840
  O      -29.856    1011.113      30.125
  C      -30.405    1011.503      27.867
  O      -30.039    1011.213      26.530
  C      -31.381    1010.453      28.387
  O      -31.001    1009.148      27.911
  C      -31.173    1010.552      29.913
  N      -35.973    1010.779      31.490
  C      -35.245    1009.698      31.045
  N      -35.901    1008.524      30.957
  N      -33.980    1009.754      30.720
  C      -33.454    1011.002      30.859
  C      -34.074    1012.156      31.287
  C      -35.477    1012.072      31.639
  O      -36.191    1013.002      31.985
  N      -33.210    1013.225      31.296
  C      -32.072    1012.712      30.877
  N      -32.174    1011.387      30.551
  O      -29.329    1016.200      29.378
  O      -27.237    1015.150      30.439
  H      -30.785    1009.258      26.956
  H      -29.622    1016.298      30.303
  H      -36.952    1010.682      31.729
  H      -31.147    1013.278      30.775
  H      -31.190    1009.567      30.387
  H      -32.407    1010.629      28.052
  H      -36.897    1008.423      31.127
  H      -30.861    1012.495      27.952
  H      -35.410    1007.722      30.569
  H      -28.659    1010.426      28.583
  H      -27.550    1012.371      29.681
  H      -27.741    1012.610      27.936
  P      -30.532    1012.247      25.405
  C      -31.004    1010.347      23.699
  O      -30.265    1011.519      24.001
  O      -29.399    1013.388      25.458
  O      -31.895    1012.800      25.625
  H      -29.765    1014.237      25.146
  H      -30.900    1010.138      22.619
  H      -32.071    1010.474      23.927
  H      -30.608    1009.495      24.267
  H      -25.809    1015.835      26.810
  H      -25.577    1014.840      28.228
  H      -25.930    1016.542      28.404

 3  4  5  6  7  8  9  10  11  12  23  26  30  31 0
 6-311+G(2d,p)
 ****
 33  35  36  37  38 0
 6-311+G(2d,p)
 ****
 1  2  13  14  15  16  17  18  19  20  21  22  24  25 0
 3-21G
 ****
 27  28  29  32  34  39  40  41  42  43  44  45  46  47  48  49 0
 3-21G
 ****


