%nproc=1
%NoSave
%Mem=1900MB
#P OB98/GEN NMR

erre ene a

0 1
  C      100.293    -222.989    -379.270
  O       99.953    -224.328    -379.569
  H      100.796    -222.558    -380.143
  H      100.978    -222.955    -378.421
  H       99.398    -222.397    -379.059
  P       99.076    -225.157    -378.512
  C      100.854    -226.865    -377.750
  O       99.654    -226.655    -378.481
  C      101.227    -228.351    -377.734
  O      100.051    -229.121    -377.365
  C      101.726    -228.879    -379.085
  O      102.767    -229.832    -378.864
  C      100.509    -229.570    -379.665
  O      100.859    -230.602    -380.588
  C       99.816    -230.094    -378.410
  N       96.326    -233.146    -380.425
  C       97.688    -233.304    -380.313
  N       98.211    -234.439    -380.830
  N       98.485    -232.435    -379.748
  C       97.822    -231.354    -379.247
  C       96.471    -231.078    -379.296
  C       95.612    -232.048    -379.947
  O       94.399    -231.949    -380.090
  N       96.193    -229.874    -378.702
  C       97.366    -229.422    -378.295
  N       98.387    -230.276    -378.621
  O       97.593    -225.066    -378.716
  O       99.510    -224.573    -377.089
  H      100.027    -230.879    -381.033
  H       98.817    -223.986    -376.723
  H       95.765    -233.843    -380.879
  H       97.530    -228.492    -377.774
  H      100.217    -231.061    -378.081
  H       99.880    -228.842    -380.190
  H       97.655    -235.166    -381.261
  H      102.088    -228.077    -379.729
  H       99.209    -234.601    -380.734
  H      101.976    -228.513    -376.948
  H      100.702    -226.513    -376.723
  H      101.662    -226.278    -378.209
  P      104.293    -229.391    -379.106
  C      105.262    -231.088    -380.773
  O      105.173    -230.698    -379.410
  O      104.869    -228.464    -378.078
  O      104.229    -228.674    -380.548
  H      104.873    -227.934    -380.561
  H      105.869    -231.965    -380.854
  H      105.701    -230.296    -381.343
  H      104.282    -231.297    -381.149

 6  7  8  9  10  11  12  13  14  15  26  29  33  34 0
 6-311+G(2d,p)
 ****
 36  38  39  40  41 0
 6-311+G(2d,p)
 ****
 1  2  3  4  5  16  17  18  19  20  21  22  23  24  25 0
 3-21G
 ****
 27  28  30  31  32  35  37  42  43  44  45  46  47 0
 3-21G
 ****
 48  49 0
 3-21G
 ****


