%nproc=1
%NoSave
%Mem=1900MB
#P OB98/GEN NMR

erre ene a

0 1
  C      168.107     -65.171    -114.539
  O      168.611     -65.495    -113.256
  H      168.636     -64.291    -114.914
  H      167.041     -64.934    -114.469
  H      168.258     -65.994    -115.241
  P      168.203     -66.896    -112.595
  C      166.779     -65.884    -110.691
  O      166.785     -66.671    -111.881
  C      165.451     -66.032    -109.954
  O      165.505     -65.225    -108.733
  C      164.223     -65.553    -110.756
  O      163.105     -66.363    -110.358
  C      164.069     -64.135    -110.240
  O      162.824     -63.580    -110.590
  C      164.347     -64.358    -108.751
  N      164.589     -63.129    -108.016
  C      163.489     -62.503    -107.442
  O      162.337     -62.928    -107.507
  N      163.750     -61.323    -106.787
  C      164.974     -60.735    -106.656
  O      165.154     -59.691    -106.040
  C      166.093     -61.433    -107.307
  C      165.860     -62.577    -107.941
  O      169.247     -67.540    -111.743
  O      167.826     -67.816    -113.851
  H      168.588     -68.379    -114.087
  H      162.088     -64.166    -110.297
  H      162.958     -60.853    -106.362
  H      167.074     -60.976    -107.239
  H      166.660     -63.122    -108.440
  H      163.525     -64.911    -108.286
  H      164.833     -63.488    -110.685
  H      164.364     -65.631    -111.839
  H      165.333     -67.076    -109.636
  H      166.926     -64.838    -110.982
  H      167.602     -66.201    -110.046
  P      162.532     -67.569    -111.261
  C      160.251     -66.496    -111.818
  O      161.482     -66.985    -112.330
  O      161.983     -68.708    -110.452
  O      163.763     -68.059    -112.156
  H      163.709     -69.026    -112.273
  H      159.646     -66.138    -112.625
  H      160.442     -65.696    -111.134
  H      159.737     -67.285    -111.310

 6  7  8  9  10  11  12  13  14  15  16  27  31  32  33  34  35 0
 6-311+G(2d,p)
 ****
 36  37 0
 6-311+G(2d,p)
 ****
 1  2  3  4  5  17  18  19  20  21  22  23  24  25 0
 3-21G
 ****
 26  28  29  30  38  39  40  41  42  43  44  45 0
 3-21G
 ****


