%nproc=1
%NoSave
%Mem=1900MB
#P OB98/GEN NMR

erre ene a

0 1
  C      -89.664    -232.825    -239.167
  O      -89.933    -234.089    -238.590
  H      -88.590    -232.755    -239.369
  H      -89.946    -232.016    -238.489
  H      -90.204    -232.723    -240.114
  P      -91.393    -234.337    -237.968
  C      -90.931    -235.942    -235.996
  O      -91.350    -235.823    -237.355
  C      -90.987    -237.399    -235.531
  O      -92.353    -237.798    -235.315
  C      -90.438    -238.386    -236.548
  O      -89.041    -238.308    -236.736
  C      -91.064    -239.700    -236.099
  O      -90.315    -240.369    -235.088
  C      -92.419    -239.226    -235.521
  N      -93.540    -239.603    -236.372
  C      -93.874    -240.950    -236.375
  O      -93.265    -241.804    -235.726
  N      -94.914    -241.307    -237.187
  C      -95.602    -240.471    -238.016
  O      -96.500    -240.861    -238.755
  C      -95.189    -239.060    -237.991
  C      -94.191    -238.693    -237.183
  O      -92.545    -234.100    -238.896
  O      -91.415    -233.409    -236.666
  H      -89.450    -240.597    -235.478
  H      -92.337    -233.268    -236.344
  H      -95.175    -242.281    -237.194
  H      -95.710    -238.366    -238.641
  H      -93.866    -237.658    -237.147
  H      -92.584    -239.674    -234.533
  H      -91.169    -240.399    -236.931
  H      -90.882    -238.154    -237.524
  H      -90.453    -237.477    -234.576
  H      -91.613    -235.342    -235.384
  H      -89.917    -235.543    -235.887
  P      -88.361    -237.975    -238.142
  C      -86.645    -239.924    -238.111
  O      -86.846    -238.517    -238.109
  O      -88.625    -236.617    -238.713
  O      -89.084    -239.049    -239.105
  H      -89.189    -238.633    -239.982
  H      -85.596    -240.134    -238.087
  H      -87.073    -240.344    -238.997
  H      -87.114    -240.353    -237.250

 6  7  8  9  10  11  12  13  14  15  16  26  31  32  33  34  35 0
 6-311+G(2d,p)
 ****
 36  37 0
 6-311+G(2d,p)
 ****
 1  2  3  4  5  17  18  19  20  21  22  23  24  25 0
 3-21G
 ****
 27  28  29  30  38  39  40  41  42  43  44  45 0
 3-21G
 ****


