%nproc=1
%NoSave
%Mem=1900MB
#P OB98/GEN NMR

erre ene a

0 1
  C      172.093     311.862     147.930
  O      172.368     312.905     147.014
  H      172.792     311.043     147.748
  H      171.073     311.498     147.786
  H      172.223     312.217     148.956
  P      171.453     314.216     147.130
  C      173.488     315.838     147.282
  O      172.338     315.426     146.560
  C      174.086     317.104     146.659
  O      174.648     316.762     145.357
  C      173.060     318.224     146.419
  O      173.752     319.481     146.497
  C      172.644     317.959     144.981
  O      171.949     319.059     144.444
  C      174.007     317.619     144.384
  N      173.406     318.270     139.349
  C      173.505     319.154     140.364
  N      173.677     318.906     141.678
  C      173.769     317.585     141.905
  C      173.698     316.564     140.972
  C      173.501     316.948     139.635
  N      173.392     316.050     138.598
  N      173.830     315.331     141.585
  C      173.981     315.608     142.866
  N      173.943     316.953     143.105
  O      171.401     314.490     148.706
  O      170.089     314.101     146.537
  H      171.111     319.214     144.931
  H      170.594     314.093     149.086
  H      173.435     320.201     140.083
  H      174.112     314.877     143.655
  H      174.634     318.510     144.263
  H      171.968     317.100     144.923
  H      172.235     318.217     147.135
  H      174.918     317.451     147.282
  H      174.224     315.027     147.255
  H      173.213     316.039     148.324
  H      173.237     316.407     137.669
  H      173.443     315.062     138.799
  P      172.956     320.782     147.003
  C      174.696     321.438     148.844
  O      174.005     321.804     147.658
  O      172.190     320.222     148.295
  O      171.988     321.371     146.028
  H      171.370     320.732     148.435
  H      175.349     322.234     149.136
  H      175.270     320.553     148.664
  H      173.989     321.252     149.625

 6  7  8  9  10  11  12  13  14  15  25  28  32  33  34  35 0
 6-311+G(2d,p)
 ****
 36  37  40 0
 6-311+G(2d,p)
 ****
 1  2  3  4  5  16  17  18  19  20  21  22  23  24 0
 3-21G
 ****
 26  27  29  30  31  38  39 41  42  43  44  45  46  47  48 0
 3-21G
 ****


