%nproc=1
%NoSave
%Mem=1900MB
#P OB98/GEN NMR

erre ene a

0 1
  C     -896.310     -44.004    2006.363
  O     -897.650     -43.752    2005.995
  H     -896.230     -45.046    2006.698
  H     -896.010     -43.348    2007.176
  H     -895.640     -43.869    2005.509
  P     -898.000     -42.361    2005.291
  C     -898.290     -43.317    2002.905
  O     -897.520     -42.471    2003.761
  C     -897.360     -44.168    2002.018
  O     -896.590     -45.059    2002.864
  C     -898.110     -45.036    2000.987
  O     -897.250     -45.195    1999.857
  C     -898.240     -46.344    2001.761
  O     -898.650     -47.416    2000.947
  C     -896.830     -46.407    2002.369
  N     -896.670     -47.379    2003.449
  C     -896.250     -48.673    2003.092
  O     -896.020     -49.026    2001.941
  N     -896.120     -49.552    2004.129
  C     -896.330     -49.285    2005.449
  O     -896.170     -50.115    2006.337
  C     -896.770     -47.922    2005.759
  C     -896.920     -47.045    2004.765
  O     -897.540     -41.128    2005.992
  O     -899.600     -42.395    2005.155
  H     -900.000     -41.845    2005.855
  H     -898.890     -48.176    2001.513
  H     -895.820     -50.497    2003.894
  H     -896.950     -47.682    2006.808
  H     -897.230     -46.018    2004.961
  H     -896.080     -46.608    2001.594
  H     -899.010     -46.240    2002.542
  H     -899.060     -44.608    2000.655
  H     -896.640     -43.507    2001.522
  H     -898.910     -42.663    2002.278
  H     -898.920     -43.964    2003.513
  P     -896.950     -44.026    1998.805
  C     -894.410     -44.193    1998.218
  O     -895.410     -43.541    1999.003
  O     -897.920     -42.897    1998.854
  O     -896.940     -44.729    1997.362
  H     -897.170     -44.069    1996.672
  H     -893.450     -43.779    1998.447
  H     -894.622     -44.049    1997.179
  H     -894.409     -45.240    1998.440

 6  7  8  9  10  11  12  13  14  15  16  27  31  32  33  34  35 0
 6-311+G(2d,p)
 ****
 36  37 0
 6-311+G(2d,p)
 ****
 1  2  3  4  5  17  18  19  20  21  22  23  24  25 0
 3-21G
 ****
 26  28  29  30  38  39  40  41  42  43  44  45 0
 3-21G
 ****


