%nproc=1
%NoSave
%Mem=1900MB
#P OB98/GEN NMR

erre ene a

0 1
  C      564.582    -421.395    -461.969
  O      563.763    -421.737    -463.086
  P      562.715    -420.659    -463.651
  C      563.714    -420.366    -466.021
  O      563.427    -419.755    -464.761
  C      563.045    -419.574    -467.148
  O      561.613    -419.470    -466.948
  C      563.522    -418.133    -467.243
  O      564.866    -417.939    -467.686
  C      562.429    -417.470    -468.045
  O      562.607    -417.673    -469.447
  C      561.175    -418.236    -467.543
  N      560.376    -417.443    -466.595
  C      559.035    -417.278    -466.924
  O      558.526    -417.712    -467.956
  N      558.296    -416.550    -466.031
  C      558.768    -415.953    -464.886
  O      558.055    -415.296    -464.135
  C      560.194    -416.141    -464.610
  C      560.926    -416.866    -465.460
  O      561.944    -419.914    -462.616
  O      561.727    -421.571    -464.530
  H      562.429    -418.609    -469.640
  H      560.812    -421.251    -464.374
  H      557.314    -416.420    -466.240
  H      560.596    -415.690    -463.720
  H      561.975    -417.021    -465.277
  H      560.527    -418.495    -468.388
  H      562.403    -416.388    -467.877
  H      563.485    -417.704    -466.227
  H      563.199    -420.116    -468.090
  H      563.362    -421.401    -466.016
  H      564.805    -420.404    -466.152
  P      565.659    -416.549    -467.494
  C      566.084    -417.038    -464.980
  O      565.582    -416.143    -465.946
  O      565.423    -415.475    -468.499
  O      567.191    -417.053    -467.630
  H      567.701    -416.328    -468.036
  H      565.941    -416.608    -463.979
  H      567.147    -417.214    -465.128
  H      565.531    -417.980    -465.028
  H      565.217    -422.221    -461.726
  H      563.961    -421.163    -461.129
  H      565.183    -420.544    -462.214

 3  4  5  6  7  8  9  10  11  12  13  23  28  29  30  31  32 0
 6-311+G(2d,p)
 ****
 33  34 0
 6-311+G(2d,p)
 ****
 1  2  14  15  16  17  18  19  20  21  22  24  25  26  27 0
 3-21G
 ****
 35  36  37  38  39  40  41  42  43  44  45 0
 3-21G
 ****


