%nproc=1
%NoSave
%Mem=1900MB
#P OB98/GEN NMR

erre ene a

0 1
  C       31.559     117.713      33.497
  O       31.918     117.874      32.118
  P       32.215     116.642      31.132
  C       31.758     118.351      29.242
  O       32.528     117.235      29.673
  C       32.590     119.273      28.347
  O       33.581     119.976      29.134
  C       33.401     118.573      27.268
  O       32.594     118.104      26.203
  C       34.386     119.672      26.874
  O       33.812     120.566      25.909
  C       34.605     120.410      28.208
  N       35.933     120.199      28.762
  C       36.972     120.946      28.201
  O       36.762     121.676      27.233
  N       38.228     120.834      28.744
  C       38.448     119.973      29.688
  N       39.708     119.919      30.200
  C       37.408     119.069      30.214
  C       36.186     119.236      29.713
  O       31.153     115.592      31.137
  O       33.619     116.044      31.614
  H       33.671     115.100      31.374
  H       34.437     121.311      25.809
  H       37.643     118.336      30.972
  H       35.359     118.622      30.054
  H       34.438     121.485      28.077
  H       35.302     119.266      26.432
  H       33.952     117.736      27.715
  H       31.913     120.012      27.897
  H       40.394     120.560      29.824
  H       31.436     118.913      30.126
  H       39.978     119.301      30.951
  H       30.867     117.993      28.715
  P       32.271     116.533      26.174
  C       30.086     116.948      24.835
  O       31.316     116.255      24.917
  O       31.310     116.322      27.439
  O       33.474     115.652      26.254
  H       31.526     115.479      27.877
  H       29.807     117.043      23.783
  H       30.153     117.946      25.277
  H       29.314     116.373      25.353
  H       31.413     118.675      33.942
  H       32.343     117.197      34.012
  H       30.654     117.147      33.566

 3  4  5  6  7  8  9  10  11  12  13  24  27  28  29  30  32 0
 6-311+G(2d,p)
 ****
 34  35 0
 6-311+G(2d,p)
 ****
 1  2  14  15  16  17  18  19  20  21  22  23  25  26 0
 3-21G
 ****
 31  33  36  37  38  39  40  41  42  43  44  45  46 0
 3-21G
 ****


