%nproc=1
%NoSave
%Mem=1900MB
#P OB98/GEN NMR

erre ene a

0 1
  C        7.388     -64.205      -0.770
  O        6.244     -64.950      -1.132
  H        7.067     -63.248      -0.351
  H        8.006     -64.013      -1.651
  H        7.970     -64.743      -0.016
  P        6.498     -66.416      -1.732
  C        5.232     -65.830      -3.927
  O        5.320     -66.679      -2.789
  C        4.017     -66.214      -4.765
  O        4.265     -67.477      -5.422
  C        2.739     -66.416      -3.959
  O        2.121     -65.185      -3.627
  C        1.917     -67.269      -4.916
  O        1.242     -66.465      -5.891
  C        2.988     -68.130      -5.598
  N        0.409     -72.502      -5.154
  C        0.134     -71.354      -5.811
  N        0.887     -70.236      -5.895
  C        2.035     -70.390      -5.215
  C        2.448     -71.496      -4.494
  C        1.578     -72.597      -4.478
  N        1.840     -73.752      -3.781
  N        3.669     -71.255      -3.894
  C        3.990     -70.030      -4.255
  N        3.036     -69.472      -5.056
  O        6.127     -67.374      -0.503
  O        7.878     -66.665      -2.241
  H        0.680     -67.071      -6.411
  H        6.937     -67.602      -0.010
  H       -0.817     -71.328      -6.334
  H        4.891     -69.506      -3.956
  H        2.819     -68.222      -6.677
  H        1.156     -67.841      -4.384
  H        2.949     -67.000      -3.055
  H        3.872     -65.450      -5.539
  H        6.138     -65.944      -4.533
  H        5.156     -64.791      -3.589
  H        1.158     -74.493      -3.796
  H        2.658     -73.792      -3.188
  P        2.289     -64.623      -2.137
  C       -0.257     -64.131      -1.942
  O        1.065     -63.625      -1.854
  O        3.554     -63.650      -2.252
  O        2.483     -65.671      -1.094
  H        4.356     -64.094      -1.919
  H       -0.954     -63.348      -1.727
  H       -0.383     -64.924      -1.235
  H       -0.432     -64.503      -2.930

 6  7  8  9  10  11  12  13  14  15  25  28  32  33  34  35 0
 6-311+G(2d,p)
 ****
 36  37  40 0
 6-311+G(2d,p)
 ****
 1  2  3  4  5  16  17  18  19  20  21  22  23  24 0
 3-21G
 ****
 26  27  29  30  31  38  39 41  42  43  44  45  46  47  48 0
 3-21G
 ****


