%nproc=1
%NoSave
%Mem=1900MB
#P OB98/GEN NMR

erre ene a

0 1
  C     -888.900    1201.113    -991.050
  O     -889.020    1199.675    -991.042
  P     -890.310    1199.034    -990.326
  C     -891.320    1197.892    -992.444
  O     -891.460    1198.882    -991.422
  C     -892.690    1197.273    -992.847
  O     -893.250    1196.504    -991.730
  C     -893.760    1198.325    -993.230
  O     -894.610    1197.740    -994.181
  C     -894.510    1198.522    -991.892
  O     -895.800    1199.136    -992.143
  C     -894.530    1197.093    -991.393
  N     -897.940    1195.898    -987.839
  C     -898.030    1195.882    -989.237
  N     -899.220    1195.483    -989.748
  N     -897.110    1196.260    -990.034
  C     -895.960    1196.622    -989.385
  C     -895.710    1196.672    -988.030
  C     -896.810    1196.296    -987.141
  O     -896.760    1196.304    -985.904
  N     -894.450    1197.103    -987.737
  C     -893.920    1197.349    -988.937
  N     -894.760    1197.012    -989.977
  O     -890.820    1200.216    -989.373
  O     -890.010    1197.800    -989.533
  H     -896.210    1199.266    -991.259
  H     -890.650    1199.983    -988.445
  H     -898.710    1195.612    -987.276
  H     -892.920    1197.712    -989.110
  H     -895.300    1196.486    -991.876
  H     -893.940    1199.188    -991.249
  H     -900.000    1195.139    -989.188
  H     -893.320    1199.281    -993.636
  H     -899.310    1195.431    -990.750
  H     -892.510    1196.601    -993.705
  H     -890.650    1197.103    -992.071
  H     -890.800    1198.345    -993.305
  P     -895.110    1198.694    -995.382
  C     -894.450    1197.082    -997.303
  O     -894.200    1198.333    -996.687
  O     -894.630    1200.135    -994.981
  O     -896.630    1198.656    -995.643
  H     -895.150    1200.823    -995.399
  H     -895.020    1197.274    -998.236
  H     -895.010    1196.388    -996.671
  H     -893.500    1196.625    -997.581
  H     -888.000    1201.393    -991.557
  H     -888.870    1201.474    -990.043
  H     -889.741    1201.538    -991.556

 3  4  5  6  7  8  9  10  11  12  23  26  30  31 0
 6-311+G(2d,p)
 ****
 33  35  36  37  38 0
 6-311+G(2d,p)
 ****
 1  2  13  14  15  16  17  18  19  20  21  22  24  25 0
 3-21G
 ****
 27  28  29  32  34  39  40  41  42  43  44  45  46  47  48  49 0
 3-21G
 ****


