%nproc=1
%NoSave
%Mem=1900MB
#P OB98/GEN NMR

erre ene a

0 1
  C       95.038    -175.182     -51.194
  O       94.883    -176.270     -52.079
  H       95.101    -175.569     -50.173
  H       94.170    -174.520     -51.264
  H       95.948    -174.620     -51.412
  P       95.085    -176.024     -53.647
  C       97.171    -177.526     -53.884
  O       95.811    -177.326     -54.240
  C       97.541    -179.012     -53.961
  O       96.747    -179.745     -52.992
  C       97.218    -179.601     -55.338
  O       98.067    -180.696     -55.668
  C       95.798    -180.113     -55.160
  O       95.450    -181.135     -56.093
  C       95.828    -180.587     -53.708
  N       91.023    -182.287     -53.728
  C       91.999    -182.418     -54.696
  N       91.648    -183.095     -55.815
  N       93.200    -181.914     -54.587
  C       93.386    -181.201     -53.449
  C       92.489    -180.982     -52.430
  C       91.174    -181.574     -52.545
  O       90.264    -181.469     -51.729
  N       93.037    -180.201     -51.442
  C       94.259    -179.946     -51.863
  N       94.527    -180.553     -53.066
  O       96.248    -174.924     -53.710
  O       93.865    -175.578     -54.395
  H       94.639    -181.566     -55.764
  H       96.219    -174.448     -54.558
  H       90.124    -182.719     -53.849
  H       94.990    -179.347     -51.334
  H       96.200    -181.617     -53.645
  H       95.110    -179.280     -55.321
  H       90.687    -183.323     -56.017
  H       97.268    -178.862     -56.134
  H       92.228    -182.934     -56.642
  H       98.590    -179.153     -53.682
  H       97.293    -177.152     -52.865
  H       97.823    -176.933     -54.528
  P       98.771    -180.716     -57.107
  C      101.193    -179.787     -56.582
  O      100.351    -180.861     -56.937
  O       98.578    -179.223     -57.643
  O       98.205    -181.729     -58.054
  H       98.008    -179.218     -58.434
  H      102.205    -180.129     -56.530
  H      100.898    -179.402     -55.628
  H      101.115    -179.014     -57.318

 6  7  8  9  10  11  12  13  14  15  26  29  33  34 0
 6-311+G(2d,p)
 ****
 36  38  39  40  41 0
 6-311+G(2d,p)
 ****
 1  2  3  4  5  16  17  18  19  20  21  22  23  24  25 0
 3-21G
 ****
 27  28  30  31  32  35  37  42  43  44  45  46  47 0
 3-21G
 ****
 48  49 0
 3-21G
 ****


