%nproc=1
%NoSave
%Mem=1900MB
#P OB98/GEN NMR

erre ene a

0 1
  C     -262.238      58.745     373.580
  O     -261.091      59.433     373.124
  H     -261.954      57.974     374.302
  H     -262.906      59.458     374.074
  H     -262.766      58.290     372.736
  P     -259.960      58.556     372.395
  C     -258.376      58.713     374.455
  O     -259.126      57.873     373.590
  C     -257.208      59.320     373.682
  O     -256.338      60.041     374.582
  C     -256.326      58.291     372.985
  O     -256.859      57.869     371.736
  C     -255.052      59.094     372.789
  O     -255.215      60.008     371.694
  C     -254.968      59.864     374.119
  N     -250.334      59.247     376.218
  C     -250.782      60.065     375.240
  N     -252.034      60.183     374.753
  C     -252.874      59.352     375.389
  C     -252.562      58.466     376.414
  C     -251.218      58.427     376.828
  N     -250.754      57.569     377.801
  N     -253.686      57.761     376.800
  C     -254.660      58.230     376.039
  N     -254.207      59.169     375.147
  O     -258.939      59.646     371.823
  O     -260.444      57.600     371.355
  H     -256.081      60.445     371.813
  H     -258.334      59.238     371.171
  H     -250.030      60.707     374.788
  H     -255.693      57.915     376.084
  H     -254.522      60.859     374.003
  H     -254.188      58.465     372.560
  H     -256.115      57.435     373.636
  H     -257.617      60.045     372.963
  H     -257.989      58.110     375.287
  H     -249.755      57.507     377.927
  H     -251.371      56.853     378.157
  H     -259.019      59.501     374.851
  P     -256.717      56.312     371.359
  C     -254.141      56.621     371.224
  O     -255.227      55.881     371.771
  O     -256.663      56.340     369.757
  O     -257.818      55.440     371.878
  H     -257.070      55.529     369.387
  H     -253.218      56.220     371.587
  H     -254.224      57.647     371.518
  H     -254.165      56.553     370.156

 6  7  8  9  10  11  12  13  14  15  25  28  32  33  34  35 0
 6-311+G(2d,p)
 ****
 36  39  40 0
 6-311+G(2d,p)
 ****
 1  2  3  4  5  16  17  18  19  20  21  22  23  24 0
 3-21G
 ****
 26  27  29  30  31  37  38  41  42  43  44  45  46  47 0
 3-21G
 ****
 48 0
 3-21G
 ****


