%nproc=1
%NoSave
%Mem=1900MB
#P OB98/GEN NMR

erre ene a

0 1
  C      291.596      84.986    -142.531
  O      292.279      84.610    -141.351
  H      292.308      85.327    -143.285
  H      291.061      84.114    -142.921
  H      290.872      85.777    -142.314
  P      293.125      85.754    -140.606
  C      295.306      85.422    -141.982
  O      294.203      86.265    -141.682
  C      296.041      85.953    -143.209
  O      295.117      86.117    -144.310
  C      296.687      87.318    -143.010
  O      297.940      87.230    -142.349
  C      296.861      87.761    -144.455
  O      297.988      87.082    -145.039
  C      295.554      87.267    -145.091
  N      293.136      90.793    -147.905
  C      294.175      89.973    -148.183
  N      294.764      89.064    -147.378
  C      294.172      89.049    -146.170
  C      293.114      89.829    -145.741
  C      292.579      90.737    -146.674
  N      291.532      91.584    -146.390
  N      292.804      89.553    -144.420
  C      293.644      88.598    -144.074
  N      294.496      88.264    -145.095
  O      294.019      84.937    -139.560
  O      292.326      86.835    -139.959
  H      298.103      87.446    -145.935
  H      294.322      85.530    -138.847
  H      294.589      90.059    -149.187
  H      293.673      88.117    -143.106
  H      295.691      86.930    -146.125
  H      297.041      88.833    -144.558
  H      296.012      88.019    -142.501
  H      296.790      85.207    -143.508
  H      294.942      84.412    -142.190
  H      291.351      92.318    -147.063
  H      291.213      91.653    -145.433
  H      295.981      85.391    -141.121
  P      298.353      88.446    -141.388
  C      299.935      89.583    -143.119
  O      298.732      89.666    -142.359
  O      299.770      87.985    -140.805
  O      297.366      88.756    -140.309
  H      299.940      88.392    -139.937
  H      300.044      90.467    -143.712
  H      299.894      88.727    -143.760
  H      300.770      89.492    -142.456

 6  7  8  9  10  11  12  13  14  15  25  28  32  33  34  35 0
 6-311+G(2d,p)
 ****
 36  39  40 0
 6-311+G(2d,p)
 ****
 1  2  3  4  5  16  17  18  19  20  21  22  23  24 0
 3-21G
 ****
 26  27  29  30  31  37  38  41  42  43  44  45  46  47 0
 3-21G
 ****
 48 0
 3-21G
 ****


