%nproc=1
%NoSave
%Mem=1900MB
#P OB98/GEN NMR

erre ene a

0 1
  C      842.822     543.491    -653.288
  O      844.127     543.924    -653.699
  P      845.068     544.683    -652.645
  C      847.193     544.119    -654.066
  O      846.460     545.098    -653.337
  C      846.511     543.791    -655.401
  O      846.193     545.025    -656.118
  C      847.342     542.912    -656.339
  O      846.419     542.094    -657.084
  C      847.987     543.950    -657.264
  O      848.444     543.409    -658.483
  C      846.813     544.928    -657.414
  N      847.203     546.249    -657.889
  C      847.453     546.402    -659.250
  O      847.429     545.496    -660.078
  N      847.782     547.671    -659.662
  C      847.906     548.782    -658.851
  O      848.224     549.897    -659.271
  C      847.655     548.552    -657.424
  C      847.321     547.318    -657.024
  O      845.511     543.493    -651.668
  O      844.386     545.770    -651.857
  H      848.910     544.123    -658.963
  H      845.422     543.776    -650.753
  H      847.945     547.807    -660.647
  H      847.741     549.396    -656.757
  H      847.125     547.132    -655.963
  H      846.069     544.503    -658.090
  H      848.844     544.397    -656.752
  H      848.069     542.291    -655.815
  H      845.545     543.301    -655.168
  H      847.265     543.195    -653.454
  H      848.208     544.487    -654.232
  P      846.077     540.633    -656.504
  C      843.657     540.084    -657.352
  O      845.041     539.971    -657.531
  O      845.117     541.043    -655.277
  O      847.243     539.819    -656.102
  H      844.471     541.723    -655.512
  H      843.375     541.091    -657.021
  H      843.309     539.363    -656.621
  H      843.157     539.884    -658.289
  H      842.333     543.007    -654.107
  H      842.246     544.338    -652.979
  H      842.914     542.805    -652.472

 3  4  5  6  7  8  9  10  11  12  13  23  28  29  30  31  32 0
 6-311+G(2d,p)
 ****
 33  34 0
 6-311+G(2d,p)
 ****
 1  2  14  15  16  17  18  19  20  21  22  24  25  26 0
 3-21G
 ****
 27  35  36  37  38  39  40  41  42  43  44  45 0
 3-21G
 ****


