%nproc=1
%NoSave
%Mem=1900MB
#P OB98/GEN NMR

erre ene a

0 1
  C     -170.256     399.924     189.225
  O     -171.516     399.621     189.833
  P     -172.535     400.752     190.341
  C     -174.428     399.046     189.927
  O     -173.916     400.065     190.781
  C     -175.522     398.227     190.615
  O     -174.947     397.301     191.556
  C     -176.529     399.046     191.415
  O     -177.451     399.700     190.563
  C     -177.136     397.971     192.311
  O     -178.160     397.238     191.622
  C     -175.917     397.072     192.601
  N     -175.344     397.303     193.918
  C     -175.962     396.654     194.993
  O     -176.979     395.976     194.810
  N     -175.435     396.813     196.251
  C     -174.427     397.609     196.430
  N     -173.943     397.721     197.696
  C     -173.799     398.379     195.336
  C     -174.303     398.179     194.124
  O     -172.701     401.892     189.388
  O     -171.922     401.267     191.730
  H     -178.566     396.646     192.284
  H     -172.152     402.208     191.848
  H     -172.980     399.055     195.535
  H     -173.899     398.701     193.264
  H     -176.197     396.012     192.519
  H     -177.587     398.387     193.215
  H     -175.994     399.778     192.036
  H     -176.038     397.643     189.842
  H     -174.389     397.175     198.419
  H     -173.600     398.382     189.650
  H     -173.159     398.307     197.946
  H     -174.817     399.514     189.017
  P     -177.572     401.297     190.602
  C     -178.523     401.808     188.272
  O     -178.798     401.708     189.662
  O     -176.307     402.050     190.368
  O     -178.147     401.595     192.069
  H     -177.805     402.459     192.373
  H     -179.460     401.692     187.717
  H     -177.820     401.028     187.955
  H     -178.100     402.789     188.052
  H     -169.755     399.014     188.971
  H     -169.654     400.483     189.911
  H     -170.417     400.502     188.339

 3  4  5  6  7  8  9  10  11  12  13  23  27  28  29  30  32 0
 6-311+G(2d,p)
 ****
 34  35 0
 6-311+G(2d,p)
 ****
 1  2  14  15  16  17  18  19  20  21  22  24  25  26 0
 3-21G
 ****
 31  33  36  37  38  39  40  41  42  43  44  45  46 0
 3-21G
 ****


