%nproc=1
%NoSave
%Mem=1900MB
#P OB98/GEN NMR

erre ene a

0 1
  C     -808.706    2005.618    1312.719
  O     -808.191    2006.486    1313.710
  H     -808.015    2004.783    1312.604
  H     -808.794    2006.133    1311.776
  H     -809.684    2005.226    1313.017
  P     -809.005    2007.856    1313.960
  C     -806.987    2009.251    1313.091
  O     -807.849    2008.957    1314.175
  C     -805.918    2010.284    1313.526
  O     -806.538    2011.563    1313.798
  C     -805.215    2009.895    1314.820
  O     -804.191    2008.918    1314.635
  C     -804.596    2011.255    1315.199
  O     -803.469    2011.535    1314.307
  C     -805.790    2012.173    1314.872
  N     -806.682    2012.413    1316.044
  C     -806.579    2013.652    1316.669
  O     -805.792    2014.537    1316.245
  N     -807.342    2013.927    1317.765
  C     -808.130    2012.986    1318.215
  N     -808.873    2013.307    1319.317
  C     -808.312    2011.654    1317.610
  C     -807.554    2011.451    1316.512
  O     -809.613    2007.667    1315.428
  O     -810.018    2008.196    1312.907
  H     -803.852    2011.565    1313.416
  H     -810.020    2008.522    1315.738
  H     -808.956    2010.930    1318.012
  H     -807.570    2010.494    1316.022
  H     -805.449    2013.150    1314.502
  H     -804.235    2011.321    1316.205
  H     -805.888    2009.627    1315.620
  H     -805.229    2010.408    1312.698
  H     -808.708    2014.200    1319.764
  H     -807.575    2009.658    1312.268
  H     -809.441    2012.609    1319.849
  H     -806.477    2008.331    1312.755
  P     -804.561    2007.413    1315.057
  C     -802.830    2007.243    1317.037
  O     -803.226    2006.798    1315.754
  O     -804.626    2006.652    1313.659
  O     -805.816    2007.229    1315.877
  H     -805.317    2005.939    1313.664
  H     -801.937    2006.732    1317.332
  H     -803.608    2007.037    1317.742
  H     -802.645    2008.296    1317.008

 6  7  8  9  10  11  12  13  14  15  16  26  30  31  32  33  35 0
 6-311+G(2d,p)
 ****
 37  38 0
 6-311+G(2d,p)
 ****
 1  2  3  4  5  17  18  19  20  21  22  23  24  25 0
 3-21G
 ****
 27  28  29  34  36  39  40  41  42  43  44  45  46 0
 3-21G
 ****


