%nproc=1
%NoSave
%Mem=1900MB
#P OB98/GEN NMR

erre ene a

0 1
  C      420.545     327.429     555.994
  O      421.011     326.085     555.918
  P      420.037     324.961     555.316
  C      418.963     324.415     553.037
  O      419.632     325.398     553.829
  C      418.677     324.957     551.635
  O      417.984     326.221     551.682
  C      419.936     325.217     550.820
  O      420.505     324.003     550.370
  C      419.397     326.129     549.727
  O      418.780     325.369     548.679
  C      418.329     326.952     550.485
  N      418.761     328.307     550.791
  C      417.764     329.287     550.789
  O      416.605     328.989     550.499
  N      418.110     330.577     551.103
  C      419.343     330.867     551.384
  N      419.628     332.161     551.688
  C      420.429     329.865     551.385
  C      420.071     328.624     551.074
  O      418.906     324.553     556.195
  O      421.038     323.728     555.056
  H      419.460     324.749     548.354
  H      420.536     322.895     555.150
  H      421.442     330.154     551.632
  H      420.808     327.825     551.048
  H      417.411     327.020     549.888
  H      420.192     326.724     549.268
  H      420.663     325.764     551.433
  H      418.038     324.227     551.114
  H      418.866     332.828     551.670
  H      418.028     324.132     553.525
  H      420.543     332.472     551.967
  H      419.586     323.513     552.993
  P      421.468     323.212     551.378
  C      421.158     321.374     553.186
  O      420.540     322.355     552.365
  O      422.036     324.382     552.322
  O      422.584     322.459     550.725
  H      422.948     324.173     552.586
  H      420.466     321.122     553.998
  H      422.088     321.748     553.623
  H      421.353     320.477     552.602
  H      421.309     328.048     556.415
  H      419.672     327.469     556.612
  H      420.304     327.779     555.012

 3  4  5  6  7  8  9  10  11  12  13  23  27  28  29  30  32 0
 6-311+G(2d,p)
 ****
 34  35 0
 6-311+G(2d,p)
 ****
 1  2  14  15  16  17  18  19  20  21  22  24  25  26 0
 3-21G
 ****
 31  33  36  37  38  39  40  41  42  43  44  45  46 0
 3-21G
 ****


