%nproc=1
%NoSave
%Mem=1900MB
#P OB98/GEN NMR

erre ene a

0 1
  C      655.066       6.130     178.940
  O      654.929       4.967     179.734
  P      655.385       4.941     181.266
  C      657.218       3.529     182.404
  O      656.886       4.356     181.288
  C      658.416       2.628     182.052
  O      658.046       1.779     180.926
  C      659.668       3.435     181.651
  O      660.849       3.073     182.374
  C      659.737       3.213     180.145
  O      661.020       3.434     179.590
  C      659.157       1.803     180.009
  N      658.758       1.487     178.639
  C      659.733       0.938     177.806
  O      660.879       0.684     178.148
  N      659.359       0.721     176.512
  C      658.175       1.101     175.939
  O      657.945       0.969     174.753
  C      657.201       1.719     176.862
  C      657.525       1.866     178.152
  O      654.452       4.265     182.208
  O      655.640       6.491     181.592
  H      660.977       3.247     178.635
  H      656.307       6.920     181.039
  H      660.047       0.318     175.890
  H      656.263       2.041     176.434
  H      656.825       2.320     178.848
  H      659.868       1.048     180.342
  H      659.059       3.933     179.672
  H      659.536       4.499     181.860
  H      658.613       1.992     182.919
  H      656.361       2.901     182.651
  H      657.437       4.158     183.271
  P      661.843       4.122     183.082
  C      664.410       4.307     182.697
  O      663.112       4.329     182.135
  O      662.158       3.824     184.507
  O      661.065       5.518     182.950
  H      661.307       6.095     183.695
  H      665.066       4.928     182.087
  H      664.788       3.280     182.691
  H      664.405       4.693     183.723
  H      654.703       5.933     177.953
  H      656.098       6.409     178.891
  H      654.501       6.928     179.375

 3  4  5  6  7  8  9  10  11  12  13  23  28  29  30  31  32 0
 6-311+G(2d,p)
 ****
 33  34 0
 6-311+G(2d,p)
 ****
 1  2  14  15  16  17  18  19  20  21  22  24  25  26  27 0
 3-21G
 ****
 35  36  37  38  39  40  41  42  43  44  45 0
 3-21G
 ****


