%nproc=1
%NoSave
%Mem=1900MB
#P OB98/GEN NMR

erre ene a

0 1
  C      242.041    -209.156       1.633
  O      241.763    -210.072       2.679
  P      243.012    -210.717       3.456
  C      242.469    -213.156       2.742
  O      243.391    -212.076       2.690
  C      243.200    -214.500       2.769
  O      243.689    -214.796       1.432
  C      244.406    -214.549       3.721
  O      244.460    -215.879       4.248
  C      245.567    -214.286       2.779
  O      246.833    -214.646       3.304
  C      245.104    -215.066       1.551
  N      247.630    -216.805      -2.541
  C      246.980    -217.447      -1.543
  N      246.322    -216.915      -0.491
  C      246.367    -215.574      -0.533
  C      247.010    -214.783      -1.474
  C      247.662    -215.452      -2.518
  N      248.334    -214.792      -3.529
  N      246.859    -213.445      -1.168
  C      246.143    -213.430      -0.060
  N      245.805    -214.691       0.348
  O      242.360    -211.237       4.821
  O      244.158    -209.780       3.698
  H      247.522    -214.542       2.618
  H      242.960    -211.093       5.575
  H      246.990    -218.533      -1.599
  H      245.857    -212.542       0.483
  H      245.225    -216.150       1.687
  H      245.609    -213.210       2.557
  H      244.335    -213.838       4.550
  H      242.477    -215.283       3.034
  H      241.828    -213.131       1.853
  H      248.936    -215.359      -4.113
  H      248.524    -213.809      -3.390
  H      241.824    -213.041       3.620
  P      244.965    -216.095       5.760
  C      247.340    -216.712       4.998
  O      246.539    -215.776       5.687
  O      244.964    -217.691       5.853
  O      244.171    -215.405       6.816
  H      245.442    -218.097       5.105
  H      248.363    -216.327       4.940
  H      246.961    -216.859       3.975
  H      247.351    -217.666       5.531
  H      241.122    -208.810       1.209
  H      242.622    -209.643       0.877
  H      242.589    -208.324       2.024

 3  4  5  6  7  8  9  10  11  12  22  25  29  30  31  32 0
 6-311+G(2d,p)
 ****
 33  36  37 0
 6-311+G(2d,p)
 ****
 1  2  13  14  15  16  17  18  19  20  21  23  24  26 0
 3-21G
 ****
 27  28  34  35  38  39  40  41  42  43  44  45  46  47  48 0
 3-21G
 ****


