%nproc=1
%NoSave
%Mem=1900MB
#P OB98/GEN NMR

erre ene a

0 1
  C     -208.742      32.575     -76.999
  O     -209.175      31.237     -77.150
  H     -208.220      32.669     -76.043
  H     -209.602      33.250     -77.002
  H     -208.054      32.844     -77.805
  P     -209.953      30.890     -78.508
  C     -207.949      29.471     -79.384
  O     -208.821      30.571     -79.598
  C     -206.810      29.484     -80.411
  O     -206.439      30.869     -80.679
  C     -205.536      28.769     -79.935
  O     -204.857      28.259     -81.096
  C     -204.739      29.918     -79.342
  O     -203.395      29.549     -79.136
  C     -205.030      30.991     -80.388
  N     -201.309      34.197     -78.968
  C     -201.275      32.926     -79.424
  N     -202.306      32.141     -79.794
  C     -203.472      32.800     -79.677
  C     -203.664      34.098     -79.236
  C     -202.511      34.812     -78.864
  N     -202.541      36.103     -78.391
  N     -205.007      34.426     -79.249
  C     -205.613      33.343     -79.692
  N     -204.727      32.335     -79.955
  O     -210.539      32.305     -78.969
  O     -211.020      29.854     -78.390
  H     -203.319      28.911     -78.394
  H     -211.459      32.401     -78.660
  H     -200.287      32.479     -79.500
  H     -206.681      33.231     -79.831
  H     -204.481      30.811     -81.320
  H     -205.139      30.206     -78.365
  H     -205.732      27.949     -79.239
  H     -207.176      29.066     -81.356
  H     -208.527      28.546     -79.483
  H     -207.530      29.528     -78.375
  H     -201.672      36.539     -78.132
  H     -203.432      36.568     -78.292
  P     -205.347      26.871     -81.743
  C     -206.443      28.062     -83.798
  O     -206.594      27.167     -82.708
  O     -206.055      26.154     -80.495
  O     -204.270      26.005     -82.309
  H     -206.003      25.186     -80.603
  H     -207.369      28.138     -84.328
  H     -205.684      27.696     -84.457
  H     -206.162      29.027     -83.431

 6  7  8  9  10  11  12  13  14  15  25  28  32  33  34  35 0
 6-311+G(2d,p)
 ****
 36  37  40 0
 6-311+G(2d,p)
 ****
 1  2  3  4  5  16  17  18  19  20  21  22  23  24 0
 3-21G
 ****
 26  27  29  30  31  38  39 41  42  43  44  45  46  47  48 0
 3-21G
 ****


