%nproc=1
%NoSave
%Mem=1900MB
#P OB98/GEN NMR

erre ene a

0 1
  C     -170.607      36.401    -197.271
  O     -170.060      37.036    -196.134
  H     -170.530      37.086    -198.124
  H     -171.661      36.175    -197.101
  H     -170.061      35.485    -197.511
  P     -169.799      36.162    -194.814
  C     -171.479      37.287    -193.212
  O     -170.114      37.118    -193.563
  C     -171.640      38.424    -192.195
  O     -171.483      37.872    -190.854
  C     -170.601      39.556    -192.351
  O     -171.241      40.777    -191.949
  C     -169.557      39.128    -191.338
  O     -168.646      40.164    -191.056
  C     -170.465      38.658    -190.201
  N     -169.769      37.888    -189.175
  C     -169.759      38.405    -187.884
  O     -170.317      39.449    -187.560
  N     -169.067      37.671    -186.956
  C     -168.395      36.507    -187.197
  O     -167.802      35.879    -186.324
  C     -168.415      36.027    -188.588
  C     -169.097      36.729    -189.501
  O     -168.488      35.456    -194.752
  O     -171.029      35.131    -194.794
  H     -170.740      34.279    -195.172
  H     -167.837      39.796    -190.633
  H     -169.044      38.029    -186.014
  H     -167.878      35.117    -188.814
  H     -169.133      36.405    -190.538
  H     -170.969      39.511    -189.729
  H     -168.966      38.292    -191.732
  H     -170.226      39.653    -193.372
  H     -172.662      38.817    -192.261
  H     -171.842      36.352    -192.778
  H     -172.060      37.512    -194.116
  P     -171.551      41.983    -192.963
  C     -170.965      43.934    -191.384
  O     -171.984      43.284    -192.128
  O     -172.522      41.620    -194.042
  O     -170.136      42.387    -193.598
  H     -170.265      42.646    -194.525
  H     -171.379      44.780    -190.876
  H     -170.191      44.260    -192.048
  H     -170.557      43.252    -190.667

 6  7  8  9  10  11  12  13  14  15  16  27  31  32  33  34  35 0
 6-311+G(2d,p)
 ****
 36  37 0
 6-311+G(2d,p)
 ****
 1  2  3  4  5  17  18  19  20  21  22  23  24  25 0
 3-21G
 ****
 26  28  29  30  38  39  40  41  42  43  44  45 0
 3-21G
 ****


