%nproc=1
%NoSave
%Mem=1900MB
#P OB98/GEN NMR

erre ene a

0 1
  C      359.471    -112.106    -116.315
  O      358.454    -111.134    -116.481
  P      358.707    -109.605    -116.079
  C      357.079    -108.935    -114.193
  O      358.345    -109.506    -114.514
  C      355.991    -110.012    -114.127
  O      356.415    -111.110    -113.299
  C      354.669    -109.530    -113.542
  O      353.947    -108.763    -114.495
  C      354.012    -110.850    -113.163
  O      353.370    -111.463    -114.293
  C      355.227    -111.693    -112.704
  N      355.331    -111.776    -111.251
  C      354.392    -112.604    -110.615
  O      353.528    -113.177    -111.278
  N      354.436    -112.717    -109.249
  C      355.315    -112.036    -108.571
  N      355.298    -112.171    -107.214
  C      356.302    -111.142    -109.197
  C      356.253    -111.055    -110.532
  O      358.046    -108.595    -116.953
  O      360.309    -109.495    -116.075
  H      352.672    -110.843    -114.577
  H      360.673    -109.477    -116.999
  H      357.010    -110.588    -108.597
  H      356.938    -110.408    -111.075
  H      355.160    -112.719    -113.103
  H      353.253    -110.727    -112.384
  H      354.859    -108.938    -112.632
  H      355.828    -110.398    -115.149
  H      354.589    -112.782    -106.820
  H      356.821    -108.207    -114.962
  H      355.916    -111.670    -106.597
  H      357.156    -108.409    -113.230
  P      352.863    -107.690    -114.001
  C      350.365    -108.274    -114.218
  O      351.571    -108.503    -113.495
  O      352.591    -106.570    -114.953
  O      353.487    -107.135    -112.631
  H      353.392    -106.158    -112.617
  H      349.676    -109.101    -114.013
  H      350.563    -108.235    -115.292
  H      349.916    -107.339    -113.883
  H      359.109    -113.060    -116.639
  H      359.747    -112.161    -115.283
  H      360.325    -111.832    -116.898

 3  4  5  6  7  8  9  10  11  12  13  23  27  28  29  30  32 0
 6-311+G(2d,p)
 ****
 34  35 0
 6-311+G(2d,p)
 ****
 1  2  14  15  16  17  18  19  20  21  22  24  25  26 0
 3-21G
 ****
 31  33  36  37  38  39  40  41  42  43  44  45  46 0
 3-21G
 ****


