%nproc=1
%NoSave
%Mem=1900MB
#P OB98/GEN NMR

erre ene a

0 1
  C     -116.283      85.023     241.198
  O     -116.182      86.432     241.076
  P     -117.210      87.313     241.941
  C     -118.938      87.260     239.984
  O     -118.174      88.039     240.890
  C     -120.192      88.031     239.571
  O     -121.159      88.028     240.639
  C     -119.941      89.493     239.228
  O     -119.458      89.617     237.903
  C     -121.325      90.096     239.438
  O     -122.167      89.863     238.292
  C     -121.831      89.317     240.661
  N     -123.749      92.519     244.068
  C     -124.198      92.196     242.802
  N     -125.349      92.779     242.407
  N     -123.576      91.374     241.998
  C     -122.431      90.876     242.522
  C     -121.875      91.131     243.754
  C     -122.600      92.000     244.652
  O     -122.297      92.241     245.817
  N     -120.693      90.460     243.921
  C     -120.553      89.776     242.804
  N     -121.589      89.977     241.930
  O     -116.289      88.491     242.507
  O     -117.928      86.572     243.025
  H     -121.802      90.337     237.525
  H     -116.014      88.303     243.425
  H     -124.278      93.144     244.648
  H     -119.733      89.108     242.589
  H     -122.908      89.118     240.606
  H     -121.286      91.180     239.581
  H     -125.869      93.441     242.961
  H     -119.235      89.937     239.940
  H     -125.691      92.559     241.479
  H     -120.640      87.508     238.715
  H     -119.234      86.327     240.474
  H     -118.325      87.021     239.109
  P     -118.040      90.336     237.696
  C     -118.988      92.686     238.259
  O     -118.334      91.863     237.314
  O     -117.497      89.695     236.333
  O     -117.073      90.132     238.815
  H     -116.528      89.589     236.385
  H     -118.659      93.718     238.114
  H     -118.766      92.383     239.286
  H     -120.068      92.633     238.094
  H     -115.548      84.557     240.575
  H     -117.259      84.708     240.894
  H     -116.118      84.740     242.217

 3  4  5  6  7  8  9  10  11  12  23  26  30  31 0
 6-311+G(2d,p)
 ****
 33  35  36  37  38 0
 6-311+G(2d,p)
 ****
 1  2  13  14  15  16  17  18  19  20  21  22  24  25 0
 3-21G
 ****
 27  28  29  32  34  39  40  41  42  43  44  45  46  47  48  49 0
 3-21G
 ****


