%nproc=1
%NoSave
%Mem=1900MB
#P OB98/GEN NMR

erre ene a

0 1
  C      -87.908    -416.030     -81.077
  O      -88.847    -415.324     -81.863
  H      -87.707    -416.992     -81.552
  H      -88.312    -416.210     -80.079
  H      -86.972    -415.466     -81.002
  P      -89.275    -413.862     -81.354
  C      -90.429    -414.467     -79.100
  O      -89.274    -413.962     -79.748
  C      -90.300    -414.331     -77.576
  O      -90.092    -412.936     -77.246
  C      -91.532    -414.812     -76.815
  O      -91.121    -415.571     -75.670
  C      -92.239    -413.544     -76.384
  O      -93.033    -413.719     -75.217
  C      -91.059    -412.557     -76.249
  N      -91.484    -411.171     -76.408
  C      -92.132    -410.576     -75.318
  O      -92.333    -411.219     -74.294
  N      -92.580    -409.286     -75.435
  C      -92.450    -408.659     -76.571
  N      -92.935    -407.396     -76.638
  C      -91.824    -409.273     -77.765
  C      -91.360    -410.510     -77.605
  O      -90.831    -413.797     -81.721
  O      -88.476    -412.731     -81.914
  H      -93.203    -412.821     -74.827
  H      -91.180    -412.878     -81.666
  H      -91.756    -408.718     -78.691
  H      -90.882    -411.032     -78.437
  H      -90.590    -412.674     -75.257
  H      -92.905    -413.202     -77.196
  H      -92.198    -415.433     -77.421
  H      -89.400    -414.863     -77.260
  H      -93.371    -407.019     -75.808
  H      -90.546    -415.527     -79.364
  H      -92.927    -406.826     -77.475
  H      -91.307    -413.919     -79.442
  P      -91.566    -417.117     -75.649
  C      -93.425    -417.103     -73.845
  O      -93.117    -417.165     -75.224
  O      -90.798    -417.710     -74.386
  O      -91.237    -417.839     -76.910
  H      -90.001    -418.183     -74.659
  H      -94.486    -417.145     -73.714
  H      -93.051    -416.187     -73.437
  H      -92.971    -417.930     -73.341

 6  7  8  9  10  11  12  13  14  15  16  26  30  31  32  33  35 0
 6-311+G(2d,p)
 ****
 37  38 0
 6-311+G(2d,p)
 ****
 1  2  3  4  5  17  18  19  20  21  22  23  24  25 0
 3-21G
 ****
 27  28  29  34  36  39  40  41  42  43  44  45  46 0
 3-21G
 ****


