%nproc=1
%NoSave
%Mem=1900MB
#P OB98/GEN NMR

erre ene a

0 1
  C     -342.748     246.040     101.289
  O     -341.545     246.664     100.831
  P     -340.394     245.778     100.167
  C     -338.654     245.699     102.075
  O     -339.616     244.975     101.322
  C     -338.324     244.939     103.367
  O     -337.654     243.688     103.092
  C     -337.373     245.696     104.276
  O     -337.869     246.868     104.899
  C     -336.841     244.597     105.183
  O     -337.731     244.328     106.263
  C     -336.788     243.396     104.213
  N     -335.432     243.090     103.766
  C     -334.621     242.424     104.681
  O     -334.978     242.143     105.823
  N     -333.349     242.128     104.249
  C     -332.820     242.455     103.026
  O     -331.673     242.183     102.705
  C     -333.727     243.170     102.107
  C     -334.963     243.450     102.514
  O     -339.526     246.468      99.175
  O     -341.235     244.599      99.446
  H     -337.489     243.450     106.631
  H     -340.820     244.425      98.580
  H     -332.746     241.644     104.888
  H     -333.333     243.449     101.134
  H     -335.647     243.980     101.853
  H     -337.194     242.493     104.698
  H     -335.873     244.866     105.626
  H     -336.516     246.031     103.661
  H     -339.263     244.710     103.884
  H     -339.038     246.696     102.310
  H     -337.754     245.848     101.470
  P     -337.366     248.341     104.522
  C     -336.013     248.409     106.739
  O     -336.032     248.653     105.347
  O     -338.400     249.416     104.457
  O     -336.791     248.106     103.038
  H     -336.941     248.916     102.516
  H     -335.040     248.693     107.129
  H     -336.181     247.349     106.935
  H     -336.784     249.002     107.245
  H     -343.400     246.782     101.702
  H     -342.511     245.316     102.040
  H     -343.234     245.556     100.468

 3  4  5  6  7  8  9  10  11  12  13  23  28  29  30  31  32 0
 6-311+G(2d,p)
 ****
 33  34 0
 6-311+G(2d,p)
 ****
 1  2  14  15  16  17  18  19  20  21  22  24  25  26  27 0
 3-21G
 ****
 35  36  37  38  39  40  41  42  43  44  45 0
 3-21G
 ****


