%nproc=1
%NoSave
%Mem=1900MB
#P OB98/GEN NMR

erre ene a

0 1
  C     -261.725      83.240    -129.387
  O     -263.046      83.054    -129.892
  P     -263.435      83.740    -131.288
  C     -265.854      84.170    -130.493
  O     -265.021      83.605    -131.500
  C     -267.320      83.750    -130.706
  O     -267.485      82.382    -130.241
  C     -268.347      84.578    -129.927
  O     -268.875      85.750    -130.543
  C     -269.504      83.587    -129.815
  O     -270.291      83.616    -131.020
  C     -268.810      82.234    -129.690
  N     -271.505      80.587    -125.664
  C     -271.878      80.976    -126.902
  N     -271.097      81.401    -127.915
  C     -269.801      81.391    -127.560
  C     -269.274      81.016    -126.336
  C     -270.187      80.600    -125.353
  N     -269.809      80.213    -124.088
  N     -267.900      81.143    -126.338
  C     -267.609      81.606    -127.539
  N     -268.723      81.759    -128.318
  O     -262.596      83.359    -132.459
  O     -263.274      85.303    -130.958
  H     -270.456      84.557    -131.221
  H     -262.906      85.755    -131.743
  H     -272.945      80.946    -127.104
  H     -266.613      81.843    -127.884
  H     -269.316      81.450    -130.266
  H     -270.185      83.831    -128.991
  H     -267.974      84.827    -128.927
  H     -267.550      83.777    -131.777
  H     -265.778      85.260    -130.525
  H     -270.531      79.970    -123.429
  H     -268.836      80.270    -123.820
  H     -265.462      83.854    -129.527
  P     -269.166      87.079    -129.697
  C     -271.327      87.920    -130.910
  O     -269.940      88.065    -130.697
  O     -267.976      87.678    -129.034
  O     -270.321      86.606    -128.694
  H     -271.168      86.413    -129.123
  H     -271.695      88.802    -131.442
  H     -271.860      87.834    -129.961
  H     -271.514      87.035    -131.525
  H     -261.623      82.724    -128.455
  H     -261.544      84.284    -129.238
  H     -261.017      82.852    -130.089

 3  4  5  6  7  8  9  10  11  12  22  25  29  30  31  32 0
 6-311+G(2d,p)
 ****
 33  36  37 0
 6-311+G(2d,p)
 ****
 1  2  13  14  15  16  17  18  19  20  21  23  24  26 0
 3-21G
 ****
 27  28  34  35  38  39  40  41  42  43  44  45  46  47  48 0
 3-21G
 ****


