%nproc=1
%NoSave
%Mem=1900MB
#P OB98/GEN NMR

erre ene a

0 1
  C      495.253    -198.083      30.973
  O      495.260    -199.065      32.003
  P      496.449    -200.137      32.024
  C      494.990    -202.231      31.555
  O      495.814    -201.534      32.481
  C      493.626    -202.565      32.164
  O      493.807    -203.620      33.157
  C      492.927    -201.397      32.868
  O      491.521    -201.562      32.685
  C      493.278    -201.614      34.324
  O      492.375    -200.936      35.210
  C      493.221    -203.139      34.388
  N      493.388    -206.819      37.945
  C      492.519    -206.591      36.940
  N      492.545    -205.587      36.028
  C      493.606    -204.774      36.243
  C      494.540    -204.870      37.255
  C      494.414    -205.951      38.138
  N      495.292    -206.203      39.167
  N      495.449    -203.834      37.168
  C      495.062    -203.117      36.129
  N      493.963    -203.664      35.516
  O      497.311    -199.681      33.291
  O      497.285    -200.192      30.788
  H      491.469    -201.237      35.003
  H      498.183    -199.334      33.003
  H      491.702    -207.307      36.837
  H      495.547    -202.215      35.774
  H      492.195    -203.512      34.457
  H      494.284    -201.238      34.530
  H      493.237    -200.402      32.499
  H      492.984    -202.973      31.373
  H      495.490    -203.165      31.281
  H      495.222    -207.072      39.661
  H      496.163    -205.675      39.198
  H      494.857    -201.622      30.656
  P      490.671    -200.262      32.286
  C      489.664    -199.612      34.584
  O      489.434    -200.173      33.300
  O      489.975    -200.686      30.891
  O      491.490    -199.020      32.143
  H      489.819    -199.891      30.357
  H      488.755    -199.089      34.916
  H      490.499    -198.903      34.587
  H      489.883    -200.415      35.296
  H      494.402    -197.445      31.094
  H      495.203    -198.566      30.020
  H      496.148    -197.499      31.031

 3  4  5  6  7  8  9  10  11  12  22  25  29  30  31  32 0
 6-311+G(2d,p)
 ****
 33  36  37 0
 6-311+G(2d,p)
 ****
 1  2  13  14  15  16  17  18  19  20  21  23  24  26 0
 3-21G
 ****
 27  28  34  35  38  39  40  41  42  43  44  45  46  47  48 0
 3-21G
 ****


