%nproc=1
%NoSave
%Mem=1900MB
#P OB98/GEN NMR

erre ene a

0 1
  C      -16.973    -781.118     565.060
  O      -17.738    -782.323     564.984
  P      -17.519    -783.373     566.187
  C      -17.729    -785.232     564.396
  O      -18.081    -784.791     565.696
  C      -18.595    -786.428     563.957
  O      -18.464    -787.526     564.906
  C      -20.090    -786.093     563.853
  O      -20.620    -786.862     562.763
  C      -20.626    -786.606     565.182
  O      -22.038    -786.760     565.203
  C      -19.806    -787.892     565.312
  N      -20.060    -792.217     568.010
  C      -20.090    -791.979     566.681
  N      -20.025    -790.789     566.034
  C      -19.901    -789.785     566.916
  C      -19.852    -789.872     568.301
  C      -19.937    -791.162     568.852
  N      -19.932    -791.418     570.203
  N      -19.750    -788.607     568.869
  C      -19.802    -787.781     567.838
  N      -19.813    -788.446     566.643
  O      -18.571    -782.896     567.296
  O      -16.118    -783.394     566.701
  H      -22.329    -787.215     564.391
  H      -18.124    -782.368     567.983
  H      -20.194    -792.855     566.037
  H      -19.842    -786.700     567.903
  H      -20.160    -788.673     564.628
  H      -20.364    -785.897     565.975
  H      -20.298    -785.035     563.675
  H      -18.224    -786.785     562.983
  H      -16.676    -785.528     564.366
  H      -19.996    -792.378     570.503
  H      -19.850    -790.652     570.872
  H      -17.830    -784.398     563.689
  P      -20.453    -786.303     561.273
  C      -22.695    -785.085     561.531
  O      -21.959    -786.034     560.773
  O      -20.123    -787.672     560.477
  O      -19.450    -785.220     561.070
  H      -20.754    -788.367     560.703
  H      -23.664    -784.928     561.051
  H      -22.160    -784.131     561.575
  H      -22.865    -785.467     562.549
  H      -17.197    -780.500     564.216
  H      -15.930    -781.357     565.061
  H      -17.220    -780.595     565.960

 3  4  5  6  7  8  9  10  11  12  22  25  29  30  31  32 0
 6-311+G(2d,p)
 ****
 33  36  37 0
 6-311+G(2d,p)
 ****
 1  2  13  14  15  16  17  18  19  20  21  23  24  26 0
 3-21G
 ****
 27  28  34  35  38  39  40  41  42  43  44  45  46  47  48 0
 3-21G
 ****


