%nproc=1
%NoSave
%Mem=1900MB
#P OB98/GEN NMR

erre ene a

0 1
  C      -21.138    -114.676      52.540
  O      -21.173    -114.123      53.853
  P      -21.774    -115.010      55.042
  C      -19.597    -115.811      56.314
  O      -20.706    -116.106      55.495
  C      -19.728    -116.577      57.640
  O      -19.708    -118.001      57.401
  C      -18.603    -116.274      58.625
  O      -18.879    -115.129      59.412
  C      -18.534    -117.558      59.427
  O      -19.599    -117.601      60.395
  C      -18.765    -118.617      58.322
  N      -17.592    -119.088      57.555
  C      -16.837    -120.158      58.029
  O      -17.073    -120.761      59.073
  N      -15.780    -120.541      57.247
  C      -15.503    -120.094      55.989
  O      -14.577    -120.517      55.310
  C      -16.419    -119.072      55.472
  C      -17.391    -118.615      56.265
  O      -22.923    -115.866      54.334
  O      -22.299    -114.218      56.199
  H      -19.552    -118.467      60.837
  H      -23.797    -115.624      54.692
  H      -15.180    -121.266      57.610
  H      -16.266    -118.722      54.460
  H      -18.074    -117.856      55.891
  H      -19.247    -119.509      58.739
  H      -17.608    -117.621      59.993
  H      -17.655    -116.160      58.092
  H      -20.696    -116.323      58.092
  H      -19.530    -114.739      56.508
  H      -18.674    -116.099      55.800
  P      -18.000    -113.804      59.227
  C      -19.979    -112.654      58.071
  O      -18.625    -113.045      57.958
  O      -16.521    -113.996      59.201
  O      -18.463    -112.874      60.448
  H      -17.843    -112.962      61.209
  H      -20.232    -112.016      57.219
  H      -20.140    -112.092      58.995
  H      -20.624    -113.537      58.056
  H      -20.711    -113.964      51.864
  H      -22.133    -114.913      52.226
  H      -20.543    -115.566      52.543

 3  4  5  6  7  8  9  10  11  12  13  23  28  29  30  31  32 0
 6-311+G(2d,p)
 ****
 33  34 0
 6-311+G(2d,p)
 ****
 1  2  14  15  16  17  18  19  20  21  22  24  25  26  27 0
 3-21G
 ****
 35  36  37  38  39  40  41  42  43  44  45 0
 3-21G
 ****


