%nproc=1
%NoSave
%Mem=1900MB
#P OB98/GEN NMR

erre ene a

0 1
  C     -896.860    -812.766    -607.586
  O     -897.230    -811.497    -607.038
  P     -898.610    -811.369    -606.235
  C     -897.910    -810.097    -604.083
  O     -898.320    -811.343    -604.654
  C     -896.400    -810.085    -603.891
  O     -895.690    -810.075    -605.147
  C     -895.910    -808.829    -603.172
  O     -896.240    -808.685    -601.795
  C     -894.430    -808.801    -603.525
  O     -893.670    -809.663    -602.662
  C     -894.430    -809.376    -604.980
  N     -894.250    -808.344    -605.987
  C     -892.930    -808.061    -606.340
  O     -891.970    -808.571    -605.780
  N     -892.790    -807.110    -607.299
  C     -893.760    -806.407    -607.927
  O     -893.550    -805.541    -608.771
  C     -895.130    -806.727    -607.486
  C     -895.330    -807.682    -606.567
  O     -899.710    -812.276    -606.670
  O     -899.040    -809.834    -606.527
  H     -892.780    -809.786    -603.083
  H     -900.000    -809.822    -606.670
  H     -891.820    -806.880    -607.563
  H     -895.960    -806.196    -607.984
  H     -896.320    -807.948    -606.236
  H     -893.640    -810.112    -605.099
  H     -893.990    -807.799    -603.454
  H     -896.340    -807.946    -603.667
  H     -896.100    -810.986    -603.337
  H     -898.420    -809.946    -603.131
  H     -898.230    -809.283    -604.748
  P     -897.750    -808.545    -601.280
  C     -898.370    -810.341    -599.508
  O     -898.300    -810.010    -600.888
  O     -898.670    -807.663    -602.077
  O     -897.540    -807.885    -599.847
  H     -898.300    -807.284    -599.645
  H     -898.740    -811.373    -599.442
  H     -899.070    -809.690    -598.985
  H     -897.390    -810.304    -599.044
  H     -895.918    -812.678    -608.087
  H     -897.606    -813.085    -608.284
  H     -896.779    -813.485    -606.798

 3  4  5  6  7  8  9  10  11  12  13  23  28  29  30  31  32 0
 6-311+G(2d,p)
 ****
 33  34 0
 6-311+G(2d,p)
 ****
 1  2  14  15  16  17  18  19  20  21  22  24  25  26  27 0
 3-21G
 ****
 35  36  37  38  39  40  41  42  43  44  45 0
 3-21G
 ****


