%nproc=1
%NoSave
%Mem=1900MB
#P OB98/GEN NMR

erre ene a

0 1
  C     -110.635      63.087    -559.496
  O     -111.825      63.176    -558.704
  P     -111.810      64.271    -557.523
  C     -111.800      62.710    -555.444
  O     -111.069      63.625    -556.256
  C     -110.925      62.085    -554.355
  O     -111.747      61.772    -553.200
  C     -110.211      60.792    -554.762
  O     -108.911      60.768    -554.154
  C     -111.042      59.707    -554.098
  O     -110.303      58.506    -553.906
  C     -111.447      60.425    -552.808
  N     -113.081      58.231    -548.554
  C     -111.875      58.849    -548.821
  N     -110.966      58.861    -547.818
  N     -111.583      59.403    -549.969
  C     -112.595      59.343    -550.869
  C     -113.841      58.770    -550.718
  C     -114.131      58.123    -549.455
  O     -115.165      57.514    -549.176
  N     -114.596      58.907    -551.858
  C     -113.809      59.555    -552.697
  N     -112.586      59.837    -552.142
  O     -113.349      64.346    -557.080
  O     -111.303      65.607    -557.950
  H     -110.885      57.881    -553.430
  H     -113.671      65.266    -557.150
  H     -113.250      57.805    -547.662
  H     -114.063      59.822    -553.711
  H     -110.615      60.456    -552.094
  H     -111.912      59.483    -554.728
  H     -111.152      58.514    -546.889
  H     -110.120      60.647    -555.842
  H     -110.098      59.350    -547.981
  H     -110.193      62.838    -554.033
  H     -112.207      61.914    -556.078
  H     -112.646      63.242    -554.996
  P     -107.676      61.186    -555.092
  C     -106.976      58.761    -555.727
  O     -107.516      59.996    -556.156
  O     -106.406      61.006    -554.133
  O     -107.773      62.563    -555.659
  H     -105.685      61.599    -554.413
  H     -106.901      58.692    -554.639
  H     -105.977      58.643    -556.158
  H     -107.615      57.949    -556.086
  H     -110.760      62.332    -560.244
  H     -109.807      62.834    -558.868
  H     -110.450      64.029    -559.968

 3  4  5  6  7  8  9  10  11  12  23  26  30  31  33  0
 6-311+G(2d,p)
 ****
 35  36  37  38 0
 6-311+G(2d,p)
 ****
 1  2  13  14  15  16  17  18  19  20  21  22  24  25  27  28  29 0
 3-21G
 ****
 32  34  39  40  41  42  43  44  45  46  47  48  49 0
 3-21G
 ****


