%nproc=1
%NoSave
%Mem=1900MB
#P OB98/GEN NMR

erre ene a

0 1
  C     -150.762      23.541       5.316
  O     -151.732      23.891       6.285
  H     -151.270      23.344       4.367
  H     -150.226      22.637       5.620
  H     -150.054      24.361       5.170
  P     -151.234      24.225       7.771
  C     -149.878      22.964       9.574
  O     -150.520      22.891       8.307
  C     -149.621      21.560      10.112
  O     -150.858      20.951      10.531
  C     -148.991      20.611       9.093
  O     -147.591      20.827       9.014
  C     -149.356      19.268       9.706
  O     -148.489      18.992      10.822
  C     -150.791      19.535      10.199
  N     -155.235      17.220       9.419
  C     -154.436      17.250      10.548
  N     -154.864      16.525      11.604
  N     -153.312      17.915      10.625
  C     -152.978      18.534       9.469
  C     -153.678      18.563       8.283
  C     -154.949      17.872       8.227
  O     -155.696      17.832       7.253
  N     -152.991      19.243       7.309
  C     -151.895      19.656       7.915
  N     -151.831      19.241       9.226
  O     -152.264      24.777       8.711
  O     -150.013      25.236       7.555
  H     -148.819      18.171      11.234
  H     -150.312      26.163       7.586
  H     -156.082      16.674       9.418
  H     -151.120      20.258       7.457
  H     -151.030      18.971      11.109
  H     -149.264      18.437       9.006
  H     -155.551      15.786      11.502
  H     -149.474      20.688       8.111
  H     -154.267      16.494      12.421
  H     -148.990      21.654      11.006
  H     -150.538      23.519      10.248
  H     -148.928      23.504       9.489
  P     -146.848      20.935       7.593
  C     -146.632      19.352       5.560
  O     -147.031      19.493       6.918
  O     -145.437      21.419       7.658
  O     -147.806      21.856       6.707
  H     -147.617      22.825       6.794
  H     -146.808      18.347       5.239
  H     -145.590      19.578       5.469
  H     -147.198      20.025       4.950

 6  7  8  9  10  11  12  13  14  15  26  29  33  34 0
 6-311+G(2d,p)
 ****
 36  38  39  40  41 0
 6-311+G(2d,p)
 ****
 1  2  3  4  5  16  17  18  19  20  21  22  23  24  25 0
 3-21G
 ****
 27  28  30  31  32  35  37  42  43  44  45  46  47 0
 3-21G
 ****
 48  49 0
 3-21G
 ****


