%nproc=1
%NoSave
%Mem=1900MB
#P OB98/GEN NMR

erre ene a

0 1
  C      246.617      44.748    -262.320
  O      246.044      43.619    -262.947
  H      246.215      45.649    -262.787
  H      247.704      44.748    -262.442
  H      246.361      44.762    -261.257
  P      246.564      42.162    -262.518
  C      244.573      40.797    -263.463
  O      245.932      41.176    -263.621
  C      243.938      40.525    -264.826
  O      243.734      41.753    -265.555
  C      244.774      39.653    -265.758
  O      244.780      38.282    -265.396
  C      244.052      39.908    -267.072
  O      242.821      39.162    -267.095
  C      243.777      41.429    -266.974
  N      244.787      42.238    -267.654
  C      244.543      42.547    -268.997
  O      243.522      42.149    -269.557
  N      245.481      43.272    -269.688
  C      246.577      43.641    -269.098
  N      247.494      44.316    -269.845
  C      246.866      43.350    -267.682
  C      245.944      42.652    -267.028
  O      246.326      41.769    -261.095
  O      248.111      42.155    -262.928
  H      242.300      39.497    -267.848
  H      248.483      41.276    -262.670
  H      247.797      43.673    -267.241
  H      246.093      42.382    -265.986
  H      242.792      41.672    -267.388
  H      244.633      39.608    -267.950
  H      245.797      40.039    -265.843
  H      242.948      40.090    -264.646
  H      247.281      44.459    -270.822
  H      244.052      41.605    -262.942
  H      248.462      44.389    -269.550
  H      244.506      39.884    -262.863
  P      246.084      37.414    -265.759
  C      246.351      35.782    -263.747
  O      245.884      35.979    -265.070
  O      247.224      38.102    -264.880
  O      246.434      37.351    -267.212
  H      247.709      38.776    -265.395
  H      246.141      34.779    -263.440
  H      245.858      36.467    -263.089
  H      247.407      35.952    -263.713

 6  7  8  9  10  11  12  13  14  15  16  26  30  31  32  33  35 0
 6-311+G(2d,p)
 ****
 37  38 0
 6-311+G(2d,p)
 ****
 1  2  3  4  5  17  18  19  20  21  22  23  24  25 0
 3-21G
 ****
 27  28  29  34  36  39  40  41  42  43  44  45  46 0
 3-21G
 ****


