%nproc=1
%NoSave
%Mem=1900MB
#P OB98/GEN NMR

erre ene a

0 1
  C      171.290     149.765     356.618
  O      172.029     150.784     357.260
  H      171.388     149.848     355.533
  H      171.683     148.794     356.935
  H      170.236     149.830     356.904
  P      171.673     152.291     356.842
  C      169.554     152.558     358.311
  O      170.083     152.443     356.999
  C      168.670     153.794     358.416
  O      169.465     154.989     358.281
  C      167.594     153.902     357.341
  O      166.479     153.070     357.621
  C      167.238     155.377     357.448
  O      166.337     155.579     358.554
  C      168.596     156.026     357.753
  N      168.638     160.037     354.546
  C      167.862     159.745     355.616
  N      167.901     158.659     356.412
  C      168.874     157.818     356.027
  C      169.742     157.979     354.960
  C      169.595     159.149     354.194
  N      170.381     159.426     353.097
  N      170.619     156.919     354.879
  C      170.287     156.128     355.878
  N      169.233     156.626     356.599
  O      171.890     152.300     355.253
  O      172.487     153.349     357.510
  H      165.549     155.031     358.377
  H      172.247     153.169     354.988
  H      167.112     160.491     355.867
  H      170.783     155.196     356.121
  H      168.510     156.794     358.532
  H      166.749     155.768     356.554
  H      168.007     153.701     356.346
  H      168.219     153.802     359.417
  H      170.378     152.644     359.028
  H      170.362     160.358     352.711
  H      171.101     158.759     352.846
  H      168.979     151.656     358.539
  P      165.601     152.565     356.373
  C      167.601     151.364     355.236
  O      166.637     152.408     355.155
  O      164.760     153.865     355.972
  O      164.723     151.393     356.648
  H      163.935     153.601     355.517
  H      168.218     151.380     354.362
  H      167.100     150.421     355.302
  H      168.209     151.507     356.105

 6  7  8  9  10  11  12  13  14  15  25  28  32  33  34  35 0
 6-311+G(2d,p)
 ****
 36  39  40 0
 6-311+G(2d,p)
 ****
 1  2  3  4  5  16  17  18  19  20  21  22  23  24 0
 3-21G
 ****
 26  27  29  30  31  37  38  41  42  43  44  45  46  47  48 0
 3-21G
 ****


