%nproc=1
%NoSave
%Mem=1900MB
#P OB98/GEN NMR

erre ene a

0 1
  C     -401.567    -784.227    -106.559
  O     -402.597    -783.261    -106.722
  P     -404.004    -783.763    -107.304
  C     -405.402    -781.545    -107.012
  O     -404.726    -782.465    -107.890
  C     -406.230    -780.557    -107.842
  O     -405.360    -779.712    -108.620
  C     -407.175    -781.201    -108.840
  O     -408.344    -781.711    -108.213
  C     -407.439    -780.033    -109.793
  O     -408.425    -779.141    -109.235
  C     -406.071    -779.344    -109.826
  N     -405.279    -779.678    -111.021
  C     -405.529    -778.922    -112.156
  O     -406.365    -778.011    -112.196
  N     -404.809    -779.254    -113.275
  C     -403.930    -780.300    -113.373
  O     -403.339    -780.583    -114.413
  C     -403.731    -781.088    -112.151
  C     -404.405    -780.739    -111.045
  O     -404.784    -784.100    -105.950
  O     -403.856    -784.908    -108.260
  H     -404.460    -783.567    -105.203
  H     -408.130    -778.931    -108.327
  H     -404.963    -778.705    -114.111
  H     -403.043    -781.924    -112.200
  H     -404.270    -781.326    -110.141
  H     -406.178    -778.260    -109.790
  H     -407.810    -780.363    -110.765
  H     -406.672    -782.007    -109.376
  H     -406.783    -779.909    -107.141
  H     -404.664    -781.009    -106.434
  H     -406.042    -782.115    -106.334
  P     -409.098    -782.919    -108.963
  C     -410.148    -784.109    -106.883
  O     -410.345    -783.320    -108.042
  O     -408.049    -784.119    -108.758
  O     -409.420    -782.620    -110.393
  H     -407.675    -784.146    -107.862
  H     -411.004    -783.975    -106.220
  H     -409.241    -783.807    -106.349
  H     -410.083    -785.164    -107.163
  H     -400.692    -783.753    -106.165
  H     -401.338    -784.667    -107.507
  H     -401.895    -784.988    -105.882

 3  4  5  6  7  8  9  10  11  12  13  24  28  29  30  31  32 0
 6-311+G(2d,p)
 ****
 33  34 0
 6-311+G(2d,p)
 ****
 1  2  14  15  16  17  18  19  20  21  22  23  25  26  27 0
 3-21G
 ****
 35  36  37  38  39  40  41  42  43  44  45 0
 3-21G
 ****


