%nproc=1
%NoSave
%Mem=1900MB
#P OB98/GEN NMR

erre ene a

0 1
  C     -219.633     244.636     598.796
  O     -220.410     243.795     599.659
  P     -220.087     242.234     599.835
  C     -220.800     239.932     598.937
  O     -221.011     241.337     598.858
  C     -222.067     239.121     598.597
  O     -223.177     239.481     599.457
  C     -222.561     239.279     597.143
  O     -223.181     238.040     596.787
  C     -223.640     240.362     597.296
  O     -224.545     240.420     596.205
  C     -224.254     239.950     598.628
  N     -227.967     243.456     598.111
  C     -227.640     242.379     597.353
  N     -226.669     241.479     597.586
  C     -226.014     241.739     598.741
  C     -226.240     242.803     599.605
  C     -227.267     243.691     599.244
  N     -227.583     244.826     599.979
  N     -225.348     242.771     600.676
  C     -224.583     241.706     600.439
  N     -224.953     241.044     599.286
  O     -220.094     241.757     601.267
  O     -218.613     242.063     599.222
  H     -225.091     241.225     596.321
  H     -218.073     241.515     599.839
  H     -228.240     242.215     596.456
  H     -223.762     241.398     601.060
  H     -224.971     239.126     598.501
  H     -223.135     241.347     597.369
  H     -221.769     239.552     596.432
  H     -221.834     238.059     598.795
  H     -220.482     239.677     599.957
  H     -228.263     245.451     599.594
  H     -226.985     245.079     600.749
  H     -219.978     239.652     598.247
  P     -222.482     237.015     595.785
  C     -222.058     236.903     593.246
  O     -222.604     237.663     594.317
  O     -222.965     235.592     595.862
  O     -220.916     237.127     596.107
  H     -220.444     236.332     595.761
  H     -220.968     236.982     593.259
  H     -222.449     237.311     592.296
  H     -222.366     235.862     593.330
  H     -220.019     245.634     598.828
  H     -219.687     244.265     597.794
  H     -218.614     244.637     599.122

 3  4  5  6  7  8  9  10  11  12  22  25  29  30  31  32 0
 6-311+G(2d,p)
 ****
 33  36  37 0
 6-311+G(2d,p)
 ****
 1  2  13  14  15  16  17  18  19  20  21  23  24  26 0
 3-21G
 ****
 27  28  34  35  38  39  40  41  42  43  44  45  46  47  48 0
 3-21G
 ****


