%nproc=1
%NoSave
%Mem=1900MB
#P OB98/GEN NMR

erre ene a

0 1
  C       73.192    -318.137    -569.408
  O       74.561    -318.387    -569.174
  H       72.635    -318.165    -568.468
  H       73.084    -317.144    -569.855
  H       72.788    -318.880    -570.102
  P       74.917    -319.761    -568.421
  C       77.182    -319.576    -569.669
  O       76.517    -319.895    -568.455
  C       78.689    -319.475    -569.430
  O       79.192    -320.714    -568.884
  C       79.516    -319.220    -570.683
  O       79.481    -317.849    -571.077
  C       80.900    -319.630    -570.190
  O       81.480    -318.557    -569.433
  C       80.587    -320.816    -569.275
  N       83.965    -324.586    -570.126
  C       84.077    -323.415    -569.463
  N       83.139    -322.456    -569.281
  C       81.980    -322.811    -569.866
  C       81.726    -323.973    -570.577
  C       82.785    -324.883    -570.709
  N       82.668    -326.074    -571.397
  N       80.420    -323.996    -571.018
  C       79.888    -322.867    -570.589
  N       80.805    -322.111    -569.886
  O       74.430    -320.890    -569.451
  O       74.286    -319.933    -567.083
  H       80.851    -318.354    -568.710
  H       74.079    -321.647    -568.950
  H       85.042    -323.221    -568.999
  H       78.866    -322.561    -570.747
  H       81.178    -320.771    -568.348
  H       81.588    -319.862    -571.010
  H       79.206    -319.881    -571.503
  H       78.861    -318.686    -568.685
  H       76.816    -318.610    -570.040
  H       83.390    -326.769    -571.293
  H       81.772    -326.284    -571.834
  H       76.961    -320.349    -570.404
  P       79.704    -317.528    -572.627
  C       80.044    -315.149    -571.655
  O       80.394    -316.076    -572.674
  O       78.217    -317.252    -573.166
  O       80.384    -318.604    -573.416
  H       78.175    -317.433    -574.123
  H       80.574    -314.232    -571.810
  H       80.304    -315.554    -570.699
  H       78.991    -314.962    -571.689

 6  7  8  9  10  11  12  13  14  15  25  28  32  33  34  35 0
 6-311+G(2d,p)
 ****
 36  39  40 0
 6-311+G(2d,p)
 ****
 1  2  3  4  5  16  17  18  19  20  21  22  23  24 0
 3-21G
 ****
 26  27  29  30  31  37  38  41  42  43  44  45  46  47  48 0
 3-21G
 ****


