%nproc=1
%NoSave
%Mem=1900MB
#P OB98/GEN NMR

erre ene a

0 1
  C      -13.577      12.043     -51.916
  O      -13.376      11.508     -53.232
  P      -13.121      12.420     -54.527
  C      -14.316      11.083     -56.394
  O      -13.073      11.459     -55.813
  C      -14.217       9.699     -57.042
  O      -14.555       8.671     -56.082
  C      -15.171       9.454     -58.200
  O      -14.783      10.141     -59.376
  C      -15.116       7.932     -58.315
  O      -13.996       7.507     -59.103
  C      -14.921       7.500     -56.849
  N      -16.095       6.852     -56.287
  C      -16.534       5.689     -56.923
  O      -15.989       5.299     -57.955
  N      -17.593       5.004     -56.380
  C      -18.224       5.496     -55.360
  N      -19.254       4.765     -54.854
  C      -17.876       6.790     -54.744
  C      -16.811       7.407     -55.250
  O      -11.937      13.323     -54.409
  O      -14.469      13.260     -54.725
  H      -14.269      14.093     -55.191
  H      -13.191       7.759     -58.609
  H      -18.454       7.184     -53.920
  H      -16.477       8.357     -54.847
  H      -14.063       6.822     -56.767
  H      -16.016       7.521     -58.785
  H      -16.183       9.760     -57.907
  H      -13.178       9.548     -57.364
  H      -19.459       3.877     -55.294
  H      -14.573      11.817     -57.167
  H      -19.794       5.046     -54.049
  H      -15.094      11.101     -55.625
  P      -15.930      10.935     -60.166
  C      -15.461       9.864     -62.483
  O      -15.482      11.041     -61.700
  O      -15.794      12.436     -59.622
  O      -17.310      10.405     -59.951
  H      -16.679      12.827     -59.514
  H      -15.622      10.137     -63.529
  H      -16.240       9.160     -62.176
  H      -14.483       9.387     -62.390
  H      -13.726      11.241     -51.224
  H      -14.438      12.678     -51.917
  H      -12.717      12.609     -51.626

 3  4  5  6  7  8  9  10  11  12  13  24  27  28  29  30  32 0
 6-311+G(2d,p)
 ****
 34  35 0
 6-311+G(2d,p)
 ****
 1  2  14  15  16  17  18  19  20  21  22  23  25  26 0
 3-21G
 ****
 31  33  36  37  38  39  40  41  42  43  44  45  46 0
 3-21G
 ****


