%nproc=1
%NoSave
%Mem=1900MB
#P OB98/GEN NMR

erre ene a

0 1
  C     2216.125     912.126    -892.155
  O     2215.457     910.928    -892.485
  H     2217.044     912.188    -892.715
  H     2216.370     912.128    -891.075
  H     2215.498     912.990    -892.375
  P     2213.969     910.735    -891.925
  C     2212.852     909.708    -894.055
  O     2212.992     910.838    -893.205
  C     2213.521     909.988    -895.405
  O     2214.934     910.190    -895.195
  C     2213.351     908.851    -896.435
  O     2213.218     909.424    -897.725
  C     2214.676     908.129    -896.325
  O     2214.994     907.380    -897.515
  C     2215.636     909.318    -896.105
  N     2216.917     908.859    -895.545
  C     2217.990     908.756    -896.415
  O     2217.960     909.058    -897.595
  N     2219.127     908.253    -895.865
  C     2219.292     907.824    -894.575
  O     2220.358     907.357    -894.175
  C     2218.131     907.961    -893.715
  C     2217.009     908.458    -894.225
  O     2213.705     912.088    -891.125
  O     2213.731     909.515    -891.095
  H     2213.977     912.006    -890.205
  H     2215.757     906.801    -897.325
  H     2219.929     908.158    -896.505
  H     2218.240     907.630    -892.675
  H     2216.137     908.546    -893.585
  H     2215.805     909.832    -897.035
  H     2214.679     907.437    -895.485
  H     2212.483     908.160    -896.225
  H     2213.110     910.929    -895.815
  H     2211.774     909.506    -894.205
  H     2213.307     908.840    -893.585
  P     2211.741     909.963    -898.135
  C     2212.412     912.301    -899.105
  O     2211.837     911.565    -898.035
  O     2210.873     909.528    -896.845
  O     2211.255     909.414    -899.435
  H     2211.375     909.592    -896.025
  H     2212.394     913.345    -898.871
  H     2211.851     912.127    -900.000
  H     2213.424     911.986    -899.252

 6  7  8  9  10  11  12  13  14  15  16  27  31  32  33  34  35 0
 6-311+G(2d,p)
 ****
 36  37 0
 6-311+G(2d,p)
 ****
 1  2  3  4  5  17  18  19  20  21  22  23  24  25 0
 3-21G
 ****
 26  28  29  30  38  39  40  41  42  43  44  45 0
 3-21G
 ****


