%nproc=1
%NoSave
%Mem=1900MB
#P OB98/GEN NMR

erre ene a

0 1
  C      120.316     -66.096     187.197
  O      120.552     -66.053     185.799
  P      119.350     -65.556     184.856
  C      118.938     -67.983     184.028
  O      118.386     -66.817     184.622
  C      118.047     -68.491     182.893
  O      116.810     -69.006     183.462
  C      117.666     -67.424     181.854
  O      117.592     -68.089     180.588
  C      116.288     -66.995     182.330
  O      115.530     -66.300     181.356
  C      115.724     -68.340     182.778
  N      111.776     -70.800     184.900
  C      112.798     -71.235     184.127
  N      113.818     -70.521     183.605
  C      113.725     -69.230     183.964
  C      112.732     -68.637     184.728
  C      111.721     -69.484     185.209
  N      110.674     -69.036     185.990
  N      112.957     -67.283     184.861
  C      114.065     -67.058     184.185
  N      114.576     -68.208     183.644
  O      120.060     -65.370     183.436
  O      118.666     -64.304     185.311
  H      116.022     -65.512     181.049
  H      119.715     -64.584     182.969
  H      112.796     -72.296     183.896
  H      114.529     -66.092     184.048
  H      115.431     -68.967     181.926
  H      116.403     -66.321     183.187
  H      118.388     -66.607     181.787
  H      118.555     -69.331     182.404
  H      119.016     -68.772     184.782
  H      109.901     -69.675     186.114
  H      110.532     -68.035     186.040
  H      119.948     -67.763     183.665
  P      117.767     -67.226     179.247
  C      115.269     -66.628     179.285
  O      116.593     -66.134     179.335
  O      117.183     -68.239     178.154
  O      119.143     -66.731     178.966
  H      116.309     -68.583     178.415
  H      114.579     -65.797     179.452
  H      115.114     -67.378     180.064
  H      115.069     -67.060     178.300
  H      121.196     -66.443     187.697
  H      119.504     -66.762     187.401
  H      120.070     -65.115     187.548

 3  4  5  6  7  8  9  10  11  12  22  25  29  30  31  32 0
 6-311+G(2d,p)
 ****
 33  36  37 0
 6-311+G(2d,p)
 ****
 1  2  13  14  15  16  17  18  19  20  21  23  24  26 0
 3-21G
 ****
 27  28  34  35  38  39  40  41  42  43  44  45  46  47  48 0
 3-21G
 ****


