%nproc=1
%NoSave
%Mem=1900MB
#P OB98/GEN NMR

erre ene a

0 1
  C       52.349      47.520     945.711
  O       51.469      48.002     944.719
  H       52.044      47.917     946.679
  H       53.373      47.846     945.497
  H       52.308      46.422     945.757
  P       51.765      47.539     943.205
  C       53.878      49.025     942.936
  O       53.351      47.707     942.995
  C       55.048      49.084     941.950
  O       56.175      48.343     942.452
  C       54.736      48.526     940.566
  O       54.070      49.491     939.752
  C       56.133      48.189     940.055
  O       56.800      49.363     939.554
  C       56.813      47.676     941.335
  N       59.000      43.275     940.154
  C       59.391      44.570     939.853
  N       60.486      44.706     939.075
  N       58.742      45.628     940.265
  C       57.647      45.337     941.003
  C       57.171      44.096     941.376
  C       57.907      42.926     940.944
  O       57.663      41.763     941.231
  N       56.030      44.208     942.139
  C       55.801      45.507     942.193
  N       56.739      46.235     941.501
  O       51.151      48.725     942.324
  O       51.199      46.213     942.822
  H       57.672      49.114     939.210
  H       50.840      48.364     941.472
  H       59.551      42.505     939.826
  H       54.971      45.972     942.716
  H       57.882      47.941     941.360
  H       56.099      47.468     939.244
  H       60.811      43.959     938.480
  H       54.137      47.600     940.651
  H       60.762      45.649     938.836
  H       55.356      50.146     941.879
  H       54.233      49.315     943.932
  H       53.082      49.715     942.620
  P       52.930      48.968     938.766
  C       54.582      48.169     936.926
  O       53.600      47.806     937.874
  O       52.753      50.171     937.725
  O       51.635      48.609     939.429
  H       51.906      50.085     937.241
  H       54.928      47.293     936.418
  H       55.403      48.639     937.425
  H       54.159      48.849     936.217

 6  7  8  9  10  11  12  13  14  15  26  29  33  34 0
 6-311+G(2d,p)
 ****
 36  38  39  40  41 0
 6-311+G(2d,p)
 ****
 1  2  3  4  5  16  17  18  19  20  21  22  23  24  25 0
 3-21G
 ****
 27  28  30  31  32  35  37  42  43  44  45  46  47 0
 3-21G
 ****
 48  49 0
 3-21G
 ****


