%nproc=1
%NoSave
%Mem=1900MB
#P OB98/GEN NMR

erre ene a

0 1
  C     -275.399     -10.424    -100.203
  O     -276.453     -10.757    -101.095
  P     -276.657      -9.818    -102.383
  C     -276.996      -7.266    -102.727
  O     -276.979      -8.356    -101.807
  C     -277.869      -6.136    -102.200
  O     -279.237      -6.582    -102.095
  C     -277.496      -5.648    -100.808
  O     -276.402      -4.743    -100.839
  C     -278.781      -4.937    -100.391
  O     -278.811      -3.616    -100.960
  C     -279.863      -5.822    -101.037
  N     -282.068      -6.335     -96.501
  C     -281.568      -5.208     -97.118
  N     -281.699      -4.043     -96.444
  N     -280.992      -5.213     -98.292
  C     -280.964      -6.442     -98.867
  C     -281.427      -7.638     -98.355
  C     -282.017      -7.621     -97.032
  O     -282.415      -8.602     -96.404
  N     -281.234      -8.668     -99.240
  C     -280.699      -8.095    -100.301
  N     -280.488      -6.751    -100.111
  O     -278.071     -10.305    -102.966
  O     -275.577      -9.903    -103.409
  H     -278.700      -3.715    -101.923
  H     -278.116     -10.113    -103.923
  H     -282.518      -6.268     -95.609
  H     -280.451      -8.608    -101.218
  H     -280.648      -5.211    -101.500
  H     -278.877      -4.824     -99.310
  H     -282.249      -3.952     -95.602
  H     -277.308      -6.483    -100.130
  H     -281.370      -3.195     -96.898
  H     -277.834      -5.310    -102.922
  H     -277.399      -7.608    -103.685
  H     -275.970      -6.921    -102.885
  P     -275.472      -4.695     -99.531
  C     -275.977      -4.310     -97.008
  O     -276.426      -4.200     -98.353
  O     -274.514      -3.439     -99.810
  O     -274.703      -5.948     -99.282
  H     -273.671      -3.543     -99.322
  H     -274.902      -4.125     -96.933
  H     -276.197      -5.319     -96.637
  H     -276.505      -3.580     -96.396
  H     -275.378     -11.127     -99.397
  H     -275.558      -9.440     -99.814
  H     -274.466     -10.454    -100.726

 3  4  5  6  7  8  9  10  11  12  23  26  30  31  33  0
 6-311+G(2d,p)
 ****
 35  36  37  38 0
 6-311+G(2d,p)
 ****
 1  2  13  14  15  16  17  18  19  20  21  22  24  25  27  28  29 0
 3-21G
 ****
 32  34  39  40  41  42  43  44  45  46  47  48  49 0
 3-21G
 ****


