%nproc=1
%NoSave
%Mem=1900MB
#P OB98/GEN NMR

erre ene a

0 1
  C       -0.389      34.209     351.997
  O        0.394      35.354     352.273
  H       -1.363      34.326     352.482
  H        0.089      33.306     352.384
  H       -0.548      34.112     350.919
  P        1.953      35.313     351.886
  C        1.562      36.991     349.961
  O        2.019      35.689     350.325
  C        2.211      37.452     348.652
  O        3.431      38.170     348.927
  C        2.619      36.309     347.734
  O        1.532      35.608     347.165
  C        3.647      36.969     346.829
  O        3.072      37.628     345.704
  C        4.287      38.013     347.777
  N        5.646      37.647     348.155
  C        6.502      37.325     347.107
  O        6.155      37.316     345.925
  N        7.773      36.966     347.465
  C        8.242      36.854     348.741
  O        9.383      36.484     348.995
  C        7.283      37.183     349.807
  C        6.049      37.560     349.473
  O        2.676      34.047     352.235
  O        2.554      36.613     352.596
  H        2.656      36.940     345.151
  H        3.539      36.562     352.659
  H        8.409      36.738     346.717
  H        7.622      37.100     350.833
  H        5.322      37.806     350.244
  H        4.329      38.993     347.286
  H        4.362      36.241     346.441
  H        3.167      35.572     348.335
  H        1.519      38.138     348.148
  H        1.844      37.680     350.764
  H        0.473      36.989     349.869
  P        1.675      34.169     346.487
  C        1.299      32.915     348.733
  O        2.158      33.129     347.616
  O        2.328      34.120     345.142
  O        0.127      33.759     346.288
  H        0.067      33.235     345.464
  H        1.746      32.204     349.396
  H        0.357      32.540     348.392
  H        1.149      33.840     349.250

 6  7  8  9  10  11  12  13  14  15  16  26  31  32  33  34  35 0
 6-311+G(2d,p)
 ****
 36  37 0
 6-311+G(2d,p)
 ****
 1  2  3  4  5  17  18  19  20  21  22  23  24  25 0
 3-21G
 ****
 27  28  29  30  38  39  40  41  42  43  44  45 0
 3-21G
 ****


