%nproc=1
%NoSave
%Mem=1900MB
#P OB98/GEN NMR

erre ene a

0 1
  C      -28.519      56.858      63.075
  O      -29.844      56.918      63.579
  P      -31.047      56.902      62.518
  C      -30.893      54.320      62.535
  O      -30.952      55.499      61.743
  C      -32.259      53.650      62.615
  O      -33.163      54.512      63.359
  C      -32.907      53.371      61.249
  O      -33.489      52.061      61.260
  C      -34.043      54.378      61.184
  O      -35.092      53.944      60.325
  C      -34.423      54.464      62.661
  N      -38.437      55.941      65.344
  C      -37.712      54.769      65.415
  N      -38.157      53.838      66.287
  N      -36.648      54.528      64.696
  C      -36.300      55.561      63.890
  C      -36.932      56.773      63.738
  C      -38.142      57.002      64.498
  O      -38.880      57.982      64.413
  N      -36.271      57.571      62.840
  C      -35.245      56.843      62.445
  N      -35.246      55.596      63.017
  O      -30.574      57.972      61.427
  O      -32.387      57.247      63.069
  H      -35.790      54.625      60.360
  H      -31.258      58.661      61.323
  H      -39.258      56.068      65.909
  H      -34.499      57.162      61.727
  H      -34.952      53.555      62.974
  H      -33.656      55.332      60.809
  H      -38.947      53.972      66.896
  H      -32.223      53.464      60.400
  H      -37.625      52.980      66.369
  H      -32.159      52.722      63.191
  H      -30.562      54.582      63.545
  H      -30.163      53.634      62.093
  P      -33.006      51.067      60.094
  C      -30.950      50.022      61.305
  O      -31.428      50.892      60.297
  O      -33.125      51.961      58.774
  O      -33.799      49.806      60.006
  H      -33.236      51.395      57.988
  H      -31.752      49.422      61.746
  H      -30.479      50.615      62.092
  H      -30.206      49.351      60.870
  H      -27.826      56.877      63.890
  H      -28.342      57.698      62.437
  H      -28.390      55.954      62.518

 3  4  5  6  7  8  9  10  11  12  23  26  30  31  33  0
 6-311+G(2d,p)
 ****
 35  36  37  38 0
 6-311+G(2d,p)
 ****
 1  2  13  14  15  16  17  18  19  20  21  22  24  25  27  28  29 0
 3-21G
 ****
 32  34  39  40  41  42  43  44  45  46  47  48  49 0
 3-21G
 ****


