%nproc=1
%NoSave
%Mem=1900MB
#P OB98/GEN NMR

erre ene a

0 1
  C      312.862    -225.928     139.314
  O      312.256    -227.103     139.813
  H      312.079    -225.216     139.043
  H      313.453    -226.157     138.422
  H      313.502    -225.476     140.077
  P      313.243    -228.276     140.290
  C      313.544    -229.231     137.888
  O      314.162    -228.636     139.025
  C      314.587    -229.473     136.802
  O      315.119    -228.206     136.343
  C      315.795    -230.269     137.277
  O      315.532    -231.659     137.352
  C      316.824    -229.903     136.218
  O      316.676    -230.713     135.043
  C      316.475    -228.443     135.905
  N      320.662    -225.593     135.262
  C      319.944    -226.347     134.403
  N      318.830    -227.068     134.650
  C      318.455    -226.933     135.934
  C      319.083    -226.196     136.923
  C      320.242    -225.496     136.545
  N      320.985    -224.748     137.423
  N      318.420    -226.336     138.126
  C      317.404    -227.132     137.868
  N      317.381    -227.516     136.557
  O      312.267    -229.538     140.427
  O      313.983    -228.003     141.559
  H      316.730    -231.643     135.344
  H      312.034    -229.666     141.365
  H      320.321    -226.389     133.383
  H      316.670    -227.463     138.589
  H      316.511    -228.230     134.828
  H      317.837    -230.046     136.590
  H      316.141    -229.891     138.246
  H      314.103    -229.966     135.952
  H      312.772    -228.555     137.503
  H      313.075    -230.171     138.191
  H      321.843    -224.328     137.102
  H      320.746    -224.764     138.409
  P      316.353    -232.515     138.429
  C      318.313    -233.235     136.865
  O      317.895    -232.477     137.992
  O      315.910    -234.025     138.132
  O      316.102    -232.133     139.849
  H      315.868    -234.529     138.969
  H      319.363    -233.098     136.713
  H      317.781    -232.906     135.997
  H      318.109    -234.271     137.037

 6  7  8  9  10  11  12  13  14  15  25  28  32  33  34  35 0
 6-311+G(2d,p)
 ****
 36  37  40 0
 6-311+G(2d,p)
 ****
 1  2  3  4  5  16  17  18  19  20  21  22  23  24 0
 3-21G
 ****
 26  27  29  30  31  38  39 41  42  43  44  45  46  47  48 0
 3-21G
 ****


