%nproc=1
%NoSave
%Mem=1900MB
#P OB98/GEN NMR

erre ene a

0 1
  C     -108.788     -44.364    -308.562
  O     -108.238     -43.520    -309.582
  P     -109.142     -42.297    -310.095
  C     -110.309     -40.575    -308.530
  O     -109.086     -41.126    -309.000
  C     -110.093     -39.132    -308.056
  O     -109.186     -39.085    -306.934
  C     -109.463     -38.247    -309.115
  O     -110.434     -37.846    -310.068
  C     -108.907     -37.095    -308.285
  O     -109.872     -36.041    -308.126
  C     -108.600     -37.769    -306.927
  N     -107.177     -37.827    -306.640
  C     -106.530     -36.588    -306.508
  O     -107.159     -35.535    -306.654
  N     -105.185     -36.577    -306.236
  C     -104.536     -37.697    -306.139
  N     -103.201     -37.623    -305.877
  C     -105.177     -39.021    -306.298
  C     -106.484     -39.013    -306.550
  O     -110.633     -42.861    -309.958
  O     -108.842     -41.874    -311.495
  H     -109.427     -35.359    -307.576
  H     -111.203     -42.491    -310.655
  H     -104.592     -39.928    -306.210
  H     -107.035     -39.935    -306.683
  H     -109.084     -37.217    -306.103
  H     -108.027     -36.651    -308.753
  H     -108.636     -38.775    -309.611
  H     -111.063     -38.720    -307.744
  H     -102.797     -36.698    -305.772
  H     -110.701     -41.180    -307.704
  H     -102.604     -38.431    -305.784
  H     -111.055     -40.617    -309.331
  P     -110.373     -38.520    -311.526
  C     -110.913     -40.850    -312.453
  O     -110.810     -40.046    -311.294
  O     -108.792     -38.657    -311.762
  O     -111.044     -37.794    -312.645
  H     -108.617     -38.977    -312.668
  H     -111.015     -41.894    -312.149
  H     -110.022     -40.751    -313.081
  H     -111.806     -40.567    -313.025
  H     -108.084     -45.132    -308.317
  H     -109.693     -44.810    -308.918
  H     -108.997     -43.780    -307.690

 3  4  5  6  7  8  9  10  11  12  13  21  23  27  28  29  30  32 0
 6-311+G(2d,p)
 ****
 34  35 0
 6-311+G(2d,p)
 ****
 1  2  14  15  16  17  18  19  20  22  24  25  26 0
 3-21G
 ****
 31  33  36  37  38  39  40  41  42  43  44  45  46 0
 3-21G
 ****


