%nproc=1
%NoSave
%Mem=1900MB
#P OB98/GEN NMR

erre ene a

0 1
  C     -253.858     945.258     -25.073
  O     -254.793     946.322     -25.209
  P     -255.886     946.204     -26.383
  C     -255.894     948.801     -26.548
  O     -256.667     947.609     -26.384
  C     -256.736     950.030     -26.273
  O     -257.736     950.179     -27.311
  C     -257.515     950.004     -24.964
  O     -256.699     950.356     -23.855
  C     -258.584     951.052     -25.229
  O     -258.039     952.364     -24.984
  C     -258.875     950.866     -26.720
  N     -263.938     950.773     -26.481
  C     -263.051     951.773     -26.130
  N     -263.593     952.924     -25.664
  N     -261.746     951.651     -26.208
  C     -261.352     950.476     -26.733
  C     -262.132     949.395     -27.127
  C     -263.569     949.521     -26.968
  O     -264.395     948.656     -27.218
  N     -261.370     948.380     -27.621
  C     -260.129     948.836     -27.562
  N     -260.065     950.085     -26.999
  O     -256.955     945.185     -25.779
  O     -255.359     945.742     -27.702
  H     -257.790     952.403     -24.042
  H     -257.437     944.736     -26.502
  H     -264.926     950.926     -26.417
  H     -259.259     948.284     -27.905
  H     -258.959     951.822     -27.241
  H     -259.460     950.941     -24.579
  H     -264.578     953.112     -25.695
  H     -257.993     949.022     -24.814
  H     -262.957     953.681     -25.429
  H     -256.076     950.913     -26.318
  H     -255.516     948.843     -27.581
  H     -255.040     948.760     -25.864
  P     -256.906     949.503     -22.503
  C     -257.163     951.707     -21.133
  O     -256.459     950.475     -21.325
  O     -255.743     948.413     -22.580
  O     -258.264     948.882     -22.377
  H     -256.000     947.614     -22.070
  H     -258.232     951.567     -21.336
  H     -256.746     952.460     -21.789
  H     -257.042     952.012     -20.095
  H     -253.196     945.467     -24.259
  H     -253.293     945.162     -25.977
  H     -254.382     944.345     -24.881

 3  4  5  6  7  8  9  10  11  12  23  26  30  31  33  0
 6-311+G(2d,p)
 ****
 35  36  37  38 0
 6-311+G(2d,p)
 ****
 1  2  13  14  15  16  17  18  19  20  21  22  24  25  27  28  29 0
 3-21G
 ****
 32  34  39  40  41  42  43  44  45  46  47  48  49 0
 3-21G
 ****


