%nproc=1
%NoSave
%Mem=1900MB
#P OB98/GEN NMR

erre ene a

0 1
  C       33.335    -229.582    -496.027
  O       31.926    -229.598    -495.780
  P       31.119    -228.238    -496.037
  C       29.716    -228.791    -498.163
  O       30.834    -228.102    -497.607
  C       29.893    -228.946    -499.673
  O       31.125    -229.620    -499.991
  C       28.803    -229.785    -500.320
  O       27.619    -229.032    -500.478
  C       29.455    -230.194    -501.637
  O       29.188    -229.239    -502.679
  C       30.961    -230.216    -501.288
  N       31.526    -231.559    -501.327
  C       31.652    -232.129    -502.597
  O       31.274    -231.512    -503.598
  N       32.177    -233.390    -502.697
  C       32.523    -234.033    -501.624
  N       33.030    -235.286    -501.788
  C       32.380    -233.475    -500.265
  C       31.876    -232.242    -500.192
  O       32.209    -227.102    -495.758
  O       29.917    -228.073    -495.162
  H       29.702    -229.549    -503.453
  H       31.785    -226.308    -495.383
  H       32.670    -234.053    -499.402
  H       31.737    -231.756    -499.231
  H       31.525    -229.594    -501.993
  H       29.077    -231.159    -501.986
  H       28.610    -230.679    -499.712
  H       29.912    -227.944    -500.127
  H       33.113    -235.636    -502.735
  H       28.797    -228.247    -497.948
  H       33.322    -235.874    -501.022
  H       29.625    -229.768    -497.675
  P       26.323    -229.497    -499.659
  C       26.436    -227.296    -498.338
  O       26.410    -228.708    -498.264
  O       26.720    -230.985    -499.221
  O       25.013    -229.453    -500.368
  H       25.964    -231.422    -498.790
  H       26.284    -226.890    -497.337
  H       25.640    -226.928    -498.991
  H       27.409    -226.963    -498.708
  H       33.745    -230.548    -495.816
  H       33.799    -228.852    -495.397
  H       33.515    -229.334    -497.052

 3  4  5  6  7  8  9  10  11  12  13  21  23  27  28  29  30  32 0
 6-311+G(2d,p)
 ****
 34  35 0
 6-311+G(2d,p)
 ****
 1  2  14  15  16  17  18  19  20  22  24  25  26 0
 3-21G
 ****
 31  33  36  37  38  39  40  41  42  43  44  45  46 0
 3-21G
 ****


