%nproc=1
%NoSave
%Mem=1900MB
#P OB98/GEN NMR

erre ene a

0 1
  C      269.483      57.021     334.955
  O      268.581      55.974     335.233
  H      270.480      56.730     335.293
  H      269.186      57.932     335.485
  H      269.527      57.217     333.876
  P      267.081      56.077     334.683
  C      265.096      57.694     335.011
  O      266.370      57.278     335.482
  C      264.732      59.040     335.628
  O      265.522      60.094     335.036
  C      263.275      59.444     335.414
  O      262.400      58.720     336.255
  C      263.350      60.938     335.685
  O      263.303      61.203     337.091
  C      264.733      61.310     335.109
  N      264.622      61.946     333.787
  C      264.476      63.326     333.788
  O      264.449      64.008     334.809
  N      264.301      63.904     332.563
  C      264.118      63.234     331.382
  O      263.722      63.772     330.353
  C      264.346      61.784     331.435
  C      264.574      61.205     332.619
  O      266.311      54.798     334.648
  O      267.262      56.691     333.212
  H      267.175      55.972     332.552
  H      263.263      62.181     337.179
  H      264.155      64.906     332.554
  H      264.284      61.218     330.510
  H      264.706      60.135     332.688
  H      265.263      61.989     335.782
  H      262.519      61.475     335.215
  H      263.004      59.291     334.357
  H      264.967      59.007     336.702
  H      264.352      56.944     335.292
  H      265.125      57.767     333.916
  P      260.853      58.552     335.855
  C      258.920      60.125     335.220
  O      260.171      60.006     335.895
  O      260.110      57.496     336.607
  O      260.888      58.222     334.292
  H      260.330      57.426     334.127
  H      258.560      61.129     335.310
  H      258.213      59.452     335.658
  H      259.049      59.884     334.185

 6  7  8  9  10  11  12  13  14  15  16  27  31  32  33  34  35 0
 6-311+G(2d,p)
 ****
 36  37 0
 6-311+G(2d,p)
 ****
 1  2  3  4  5  17  18  19  20  21  22  23  24  25 0
 3-21G
 ****
 26  28  29  30  38  39  40  41  42  43  44  45 0
 3-21G
 ****


