%nproc=1
%NoSave
%Mem=1900MB
#P OB98/GEN NMR

erre ene a

0 1
  C      207.695    -898.340    -176.426
  O      208.609    -897.930    -177.428
  H      208.204    -899.030    -175.747
  H      206.838    -898.850    -176.869
  H      207.346    -897.470    -175.857
  P      208.028    -896.990    -178.592
  C      208.946    -898.210    -180.707
  O      209.054    -897.100    -179.821
  C      209.465    -897.820    -182.089
  O      208.568    -896.840    -182.690
  C      210.835    -897.160    -182.068
  O      211.897    -898.090    -181.937
  C      210.840    -896.460    -183.423
  O      211.254    -897.360    -184.474
  C      209.373    -896.040    -183.591
  N      209.193    -894.610    -183.367
  C      209.243    -893.810    -184.499
  O      209.446    -894.260    -185.642
  N      209.114    -892.460    -184.296
  C      208.981    -891.860    -183.081
  O      208.923    -890.640    -182.958
  C      208.942    -892.740    -181.912
  C      209.046    -894.070    -182.106
  O      208.259    -895.520    -178.023
  O      206.602    -897.230    -178.951
  H      207.417    -895.130    -177.737
  H      212.162    -897.630    -184.231
  H      209.156    -891.870    -185.108
  H      208.850    -892.290    -180.924
  H      209.038    -894.740    -181.256
  H      209.027    -896.280    -184.608
  H      211.526    -895.620    -183.430
  H      210.873    -896.390    -181.277
  H      209.478    -898.710    -182.724
  H      207.889    -898.500    -180.793
  H      209.504    -899.050    -180.294
  P      212.932    -897.870    -180.725
  C      214.808    -896.880    -182.284
  O      214.397    -897.910    -181.385
  O      212.798    -899.280    -179.968
  O      212.621    -896.670    -179.884
  H      212.526    -900.000    -180.576
  H      215.806    -897.075    -182.618
  H      214.779    -895.936    -181.782
  H      214.148    -896.857    -183.126

 6  7  8  9  10  11  12  13  14  15  16  27  31  32  33  34  35 0
 6-311+G(2d,p)
 ****
 36  37 0
 6-311+G(2d,p)
 ****
 1  2  3  4  5  17  18  19  20  21  22  23  24  25 0
 3-21G
 ****
 26  28  29  30  38  39  40  41  42  43  44  45 0
 3-21G
 ****


