%nproc=1
%NoSave
%Mem=1900MB
#P OB98/GEN NMR

erre ene a

0 1
  C     -341.003    -107.227      29.642
  O     -341.070    -107.933      30.865
  H     -341.980    -106.776      29.445
  H     -340.758    -107.903      28.819
  H     -340.258    -106.428      29.704
  P     -339.782    -108.753      31.343
  C     -338.828    -106.592      32.400
  O     -338.601    -107.683      31.513
  C     -337.768    -106.561      33.497
  O     -337.867    -105.341      34.259
  C     -337.887    -107.696      34.510
  O     -337.422    -108.909      33.959
  C     -337.054    -107.135      35.653
  O     -335.651    -107.290      35.392
  C     -337.454    -105.640      35.613
  N     -338.507    -105.293      36.566
  C     -338.088    -104.674      37.749
  O     -336.891    -104.463      37.948
  N     -339.038    -104.329      38.678
  C     -340.292    -104.540      38.435
  N     -341.183    -104.171      39.393
  C     -340.778    -105.157      37.186
  C     -339.842    -105.516      36.309
  O     -339.416    -109.951      30.520
  O     -340.122    -109.159      32.855
  H     -335.187    -106.932      36.174
  H     -340.518    -110.049      32.890
  H     -341.836    -105.302      37.018
  H     -340.114    -105.976      35.364
  H     -336.584    -105.006      35.824
  H     -337.259    -107.634      36.600
  H     -338.922    -107.790      34.854
  H     -336.782    -106.567      33.015
  H     -340.802    -103.732      40.228
  H     -339.821    -106.737      32.841
  H     -342.179    -104.136      39.248
  H     -338.830    -105.643      31.852
  P     -337.402    -110.267      34.811
  C     -339.867    -109.872      35.422
  O     -338.556    -110.105      35.915
  O     -336.066    -110.657      35.349
  O     -338.026    -111.349      33.813
  H     -337.357    -111.625      33.138
  H     -340.546    -109.781      36.244
  H     -340.165    -110.691      34.801
  H     -339.877    -108.968      34.849

 6  7  8  9  10  11  12  13  14  15  16  26  30  31  32  33  35 0
 6-311+G(2d,p)
 ****
 37  38 0
 6-311+G(2d,p)
 ****
 1  2  3  4  5  17  18  19  20  21  22  23  24  25 0
 3-21G
 ****
 27  28  29  34  36  39  40  41  42  43  44  45  46 0
 3-21G
 ****


