%nproc=1
%NoSave
%Mem=1900MB
#P OB98/GEN NMR

erre ene a

0 1
  C     -293.077    -350.625    -290.591
  O     -293.043    -352.029    -290.741
  H     -292.202    -350.200    -291.089
  H     -293.047    -350.349    -289.533
  H     -293.975    -350.213    -291.059
  P     -294.162    -352.903    -290.000
  C     -295.658    -353.414    -292.050
  O     -295.524    -352.704    -290.824
  C     -297.045    -354.067    -292.150
  O     -298.041    -353.029    -292.363
  C     -297.174    -355.071    -293.313
  O     -298.129    -356.062    -292.915
  C     -297.743    -354.188    -294.406
  O     -298.255    -354.947    -295.468
  C     -298.729    -353.342    -293.594
  N     -299.159    -352.144    -294.299
  C     -300.467    -352.155    -294.795
  O     -301.183    -353.141    -294.634
  N     -300.920    -351.057    -295.483
  C     -300.113    -350.069    -295.719
  N     -300.621    -349.016    -296.421
  C     -298.706    -350.044    -295.263
  C     -298.302    -351.103    -294.564
  O     -294.284    -352.689    -288.528
  O     -293.756    -354.416    -290.333
  H     -298.771    -354.386    -296.088
  H     -293.355    -354.831    -289.546
  H     -298.072    -349.204    -295.500
  H     -297.286    -351.180    -294.188
  H     -299.621    -353.930    -293.329
  H     -296.962    -353.544    -294.829
  H     -296.222    -355.542    -293.575
  H     -297.277    -354.543    -291.192
  H     -301.589    -349.080    -296.719
  H     -294.879    -354.182    -292.073
  H     -300.083    -348.205    -296.680
  H     -295.511    -352.734    -292.897
  P     -297.730    -357.358    -292.054
  C     -298.300    -356.573    -289.663
  O     -297.270    -356.899    -290.591
  O     -296.767    -358.271    -292.742
  O     -299.120    -358.120    -291.786
  H     -298.952    -359.078    -291.727
  H     -297.862    -356.284    -288.731
  H     -298.928    -357.426    -289.513
  H     -298.884    -355.764    -290.048

 6  7  8  9  10  11  12  13  14  15  16  26  30  31  32  33  35 0
 6-311+G(2d,p)
 ****
 37  38 0
 6-311+G(2d,p)
 ****
 1  2  3  4  5  17  18  19  20  21  22  23  24  25 0
 3-21G
 ****
 27  28  29  34  36  39  40  41  42  43  44  45  46 0
 3-21G
 ****


