%nproc=1
%NoSave
%Mem=1900MB
#P OB98/GEN NMR

erre ene a

0 1
  C       33.799      16.059     117.265
  O       34.917      15.938     116.408
  H       33.427      17.085     117.210
  H       34.084      15.846     118.300
  H       33.001      15.382     116.950
  P       35.677      14.529     116.340
  C       36.918      15.550     118.363
  O       36.437      14.364     117.743
  C       36.916      15.394     119.881
  O       35.583      15.134     120.359
  C       37.788      14.246     120.394
  O       39.147      14.641     120.459
  C       37.178      14.030     121.769
  O       37.632      15.061     122.668
  C       35.676      14.212     121.480
  N       33.403      10.044     123.277
  C       34.140      11.006     123.940
  N       34.324      10.813     125.263
  N       34.661      12.054     123.355
  C       34.456      12.078     122.018
  C       33.759      11.177     121.247
  C       33.131      10.057     121.916
  O       32.448       9.194     121.369
  N       33.845      11.483     119.913
  C       34.551      12.599     119.882
  N       34.955      12.999     121.137
  O       36.555      14.312     115.145
  O       34.505      13.443     116.429
  H       37.040      15.047     123.443
  H       34.198      13.182     115.542
  H       33.032       9.253     123.778
  H       34.791      13.159     118.987
  H       35.146      14.668     122.326
  H       37.456      13.071     122.211
  H       34.078       9.957     125.738
  H       37.649      13.339     119.797
  H       34.911      11.478     125.754
  H       37.234      16.351     120.317
  H       36.257      16.370     118.063
  H       37.932      15.777     118.018
  P       40.338      13.614     120.120
  C       40.073      12.808     122.564
  O       40.204      12.438     121.202
  O       41.690      14.230     120.034
  O       39.862      12.887     118.779
  H       40.095      13.393     117.961
  H       39.994      11.927     123.167
  H       39.194      13.406     122.688
  H       40.932      13.370     122.865

 6  7  8  9  10  11  12  13  14  15  26  29  33  34 0
 6-311+G(2d,p)
 ****
 36  38  39  40  41 0
 6-311+G(2d,p)
 ****
 1  2  3  4  5  16  17  18  19  20  21  22  23  24  25 0
 3-21G
 ****
 27  28  30  31  32  35  37  42  43  44  45  46  47 0
 3-21G
 ****
 48  49 0
 3-21G
 ****


