%nproc=1
%NoSave
%Mem=1900MB
#P OB98/GEN NMR

erre ene a

0 1
  C     -163.694     108.249    -374.252
  O     -163.421     106.996    -373.649
  H     -164.737     108.260    -374.579
  H     -163.053     108.401    -375.125
  H     -163.541     109.061    -373.535
  P     -161.947     106.728    -373.088
  C     -162.998     105.431    -371.115
  O     -162.051     105.411    -372.178
  C     -163.618     104.049    -370.938
  O     -164.561     103.781    -372.004
  C     -162.603     102.903    -370.971
  O     -161.973     102.767    -369.708
  C     -163.517     101.732    -371.316
  O     -164.252     101.334    -370.144
  C     -164.465     102.371    -372.348
  N     -165.234     100.134    -376.840
  C     -165.864      99.932    -375.628
  N     -166.811      98.964    -375.597
  N     -165.585     100.604    -374.538
  C     -164.571     101.485    -374.702
  C     -163.856     101.762    -375.844
  C     -164.213     101.057    -377.058
  O     -163.690     101.212    -378.156
  N     -162.854     102.671    -375.609
  C     -162.991     102.974    -374.330
  N     -164.012     102.266    -373.732
  O     -161.275     107.883    -372.402
  O     -161.127     106.229    -374.370
  H     -164.714     102.134    -369.826
  H     -160.683     106.976    -374.818
  H     -165.487      99.571    -377.633
  H     -162.386     103.694    -373.792
  H     -165.473     101.952    -372.302
  H     -162.978     100.860    -371.675
  H     -166.866      98.246    -376.310
  H     -161.874     103.029    -371.794
  H     -167.256      98.772    -374.710
  H     -164.185     104.047    -369.994
  H     -163.770     106.164    -371.372
  H     -162.519     105.741    -370.186
  P     -160.611     101.927    -369.548
  C     -159.271     103.671    -368.192
  O     -159.975     102.430    -368.168
  O     -159.687     101.993    -370.727
  O     -161.096     100.446    -369.191
  H     -161.258      99.875    -369.986
  H     -158.899     103.889    -367.213
  H     -159.934     104.451    -368.504
  H     -158.452     103.603    -368.878

 6  7  8  9  10  11  12  13  14  15  26  29  33  34 0
 6-311+G(2d,p)
 ****
 36  38  39  40  41 0
 6-311+G(2d,p)
 ****
 1  2  3  4  5  16  17  18  19  20  21  22  23  24  25 0
 3-21G
 ****
 27  28  30  31  32  35  37  42  43  44  45  46  47 0
 3-21G
 ****
 48  49 0
 3-21G
 ****


