%nproc=1
%NoSave
%Mem=1900MB
#P OB98/GEN NMR

erre ene a

0 1
  C       44.188    -272.348     -13.381
  O       44.713    -273.091     -12.299
  H       43.501    -272.984     -13.944
  H       44.996    -272.026     -14.045
  H       43.640    -271.476     -13.011
  P       45.770    -272.333     -11.358
  C       47.435    -270.486     -12.097
  O       46.925    -271.790     -12.333
  C       47.950    -269.873     -13.396
  O       46.890    -269.773     -14.372
  C       48.535    -268.475     -13.243
  O       49.880    -268.526     -12.795
  C       48.410    -267.943     -14.663
  O       49.482    -268.418     -15.502
  C       47.064    -268.535     -15.109
  N       43.546    -265.708     -17.371
  C       44.516    -266.525     -17.913
  N       44.595    -266.552     -19.262
  N       45.344    -267.242     -17.201
  C       45.170    -267.090     -15.866
  C       44.234    -266.325     -15.207
  C       43.305    -265.559     -16.011
  O       42.384    -264.866     -15.592
  N       44.363    -266.446     -13.849
  C       45.395    -267.252     -13.686
  N       45.929    -267.655     -14.882
  O       46.490    -273.527     -10.568
  O       45.190    -271.328     -10.423
  H       49.369    -268.059     -16.398
  H       46.762    -273.208      -9.687
  H       42.929    -265.192     -17.971
  H       45.793    -267.566     -12.731
  H       47.059    -268.788     -16.176
  H       48.450    -266.853     -14.691
  H       44.231    -265.796     -19.828
  H       47.917    -267.866     -12.571
  H       45.317    -267.130     -19.667
  H       48.703    -270.560     -13.806
  H       48.255    -270.549     -11.377
  H       46.638    -269.861     -11.678
  P       50.526    -267.175     -12.215
  C       50.879    -264.816     -13.252
  O       50.774    -266.215     -13.475
  O       52.005    -267.623     -11.797
  O       49.779    -266.567     -11.077
  H       52.394    -266.965     -11.191
  H       51.042    -264.317     -14.185
  H       51.700    -264.620     -12.594
  H       49.974    -264.456     -12.809

 6  7  8  9  10  11  12  13  14  15  26  29  33  34 0
 6-311+G(2d,p)
 ****
 36  38  39  40  41 0
 6-311+G(2d,p)
 ****
 1  2  3  4  5  16  17  18  19  20  21  22  23  24  25 0
 3-21G
 ****
 27  28  30  31  32  35  37  42  43  44  45  46  47 0
 3-21G
 ****
 48  49 0
 3-21G
 ****


