%nproc=1
%NoSave
%Mem=1900MB
#P OB98/GEN NMR

erre ene a

0 1
  C      439.499     495.413     132.646
  O      439.982     494.958     131.379
  P      441.562     494.885     131.126
  C      441.782     495.239     128.581
  O      441.804     494.297     129.646
  C      441.324     494.579     127.282
  O      442.215     493.518     126.888
  C      439.956     493.927     127.387
  O      438.930     494.918     127.381
  C      439.958     493.001     126.190
  O      439.617     493.717     124.970
  C      441.431     492.560     126.131
  N      441.638     491.203     126.625
  C      442.128     490.276     125.681
  O      442.328     490.630     124.514
  N      442.382     488.986     126.088
  C      442.151     488.650     127.321
  N      442.411     487.363     127.671
  C      441.634     489.593     128.331
  C      441.396     490.837     127.914
  O      442.361     494.229     132.211
  O      441.972     496.429     130.956
  H      439.577     493.037     124.261
  H      442.893     496.541     131.263
  H      441.463     489.255     129.360
  H      441.003     491.585     128.604
  H      441.811     492.601     125.090
  H      439.239     492.192     126.281
  H      439.893     493.334     128.311
  H      441.320     495.337     126.493
  H      442.770     486.740     126.949
  H      442.775     495.671     128.448
  H      442.317     487.013     128.616
  H      441.113     496.067     128.866
  P      438.181     495.217     128.774
  C      435.889     495.296     127.578
  O      436.793     495.956     128.439
  O      439.081     496.404     129.409
  O      438.089     494.046     129.714
  H      439.092     496.309     130.379
  H      434.904     495.748     127.700
  H      435.813     494.237     127.796
  H      436.207     495.430     126.542
  H      438.429     495.400     132.645
  H      439.843     496.411     132.822
  H      439.863     494.769     133.419

 3  4  5  6  7  8  9  10  11  12  13  23  27  28  29  30  32 0
 6-311+G(2d,p)
 ****
 34  35 0
 6-311+G(2d,p)
 ****
 1  2  14  15  16  17  18  19  20  21  22  24  25  26 0
 3-21G
 ****
 31  33  36  37  38  39  40  41  42  43  44  45  46 0
 3-21G
 ****


