%nproc=1
%NoSave
%Mem=1900MB
#P OB98/GEN NMR

erre ene a

0 1
  C     -452.103     693.776     247.726
  O     -451.252     694.896     247.588
  H     -451.813     693.023     246.993
  H     -453.143     694.066     247.533
  H     -452.021     693.342     248.725
  P     -451.349     696.074     248.666
  C     -450.201     697.682     247.000
  O     -450.189     697.124     248.310
  C     -448.986     698.600     246.792
  O     -449.031     699.661     247.793
  C     -447.630     697.895     246.940
  O     -446.696     698.577     246.091
  C     -447.328     698.156     248.410
  O     -446.001     697.849     248.752
  C     -447.766     699.622     248.492
  N     -447.908     700.159     249.836
  C     -446.994     701.123     250.254
  O     -446.080     701.560     249.558
  N     -447.157     701.592     251.527
  C     -448.128     701.213     252.404
  O     -448.244     701.688     253.528
  C     -449.059     700.187     251.919
  C     -448.914     699.718     250.678
  O     -451.390     695.648     250.097
  O     -452.681     696.861     248.248
  H     -453.414     696.613     248.848
  H     -445.394     698.463     248.278
  H     -446.505     702.294     251.844
  H     -449.838     699.852     252.591
  H     -449.591     698.966     250.286
  H     -447.073     700.256     247.925
  H     -447.957     697.524     249.038
  H     -447.659     696.835     246.672
  H     -449.077     699.082     245.810
  H     -451.126     698.254     246.884
  H     -450.189     696.871     246.265
  P     -446.126     697.952     244.723
  C     -443.814     699.066     245.079
  O     -444.928     698.887     244.211
  O     -447.174     697.696     243.688
  O     -445.400     696.592     245.156
  H     -445.397     695.970     244.401
  H     -443.097     699.708     244.611
  H     -443.364     698.117     245.282
  H     -444.144     699.508     245.996

 6  7  8  9  10  11  12  13  14  15  16  27  31  32  33  34  35 0
 6-311+G(2d,p)
 ****
 36  37 0
 6-311+G(2d,p)
 ****
 1  2  3  4  5  17  18  19  20  21  22  23  24  25 0
 3-21G
 ****
 26  28  29  30  38  39  40  41  42  43  44  45 0
 3-21G
 ****


