%nproc=1
%NoSave
%Mem=1900MB
#P OB98/GEN NMR

erre ene a

0 1
  C     -336.569    -422.551    -259.036
  O     -337.194    -421.469    -258.377
  H     -337.050    -422.694    -260.005
  H     -336.674    -423.471    -258.453
  H     -335.510    -422.334    -259.203
  P     -336.745    -421.125    -256.878
  C     -335.067    -419.311    -257.650
  O     -335.252    -420.545    -256.966
  C     -333.769    -418.627    -257.197
  O     -332.635    -419.410    -257.663
  C     -333.595    -417.198    -257.750
  O     -332.833    -416.461    -256.787
  C     -332.774    -417.460    -258.996
  O     -332.211    -416.278    -259.500
  C     -331.820    -418.540    -258.480
  N     -331.155    -419.265    -259.552
  C     -329.948    -418.720    -260.008
  O     -329.510    -417.684    -259.515
  N     -329.285    -419.353    -261.029
  C     -329.817    -420.393    -261.595
  N     -329.114    -420.964    -262.613
  C     -331.117    -420.964    -261.180
  C     -331.723    -420.357    -260.162
  O     -336.936    -422.215    -255.877
  O     -337.613    -419.832    -256.501
  H     -331.609    -415.865    -258.842
  H     -338.334    -420.085    -255.895
  H     -331.523    -421.821    -261.695
  H     -332.682    -420.699    -259.787
  H     -331.053    -418.102    -257.824
  H     -333.404    -417.871    -259.795
  H     -334.550    -416.700    -257.943
  H     -333.734    -418.633    -256.103
  H     -328.231    -420.535    -262.866
  H     -335.927    -418.674    -257.421
  H     -329.438    -421.761    -263.138
  H     -335.032    -419.482    -258.733
  P     -333.509    -415.488    -255.701
  C     -333.997    -417.008    -253.672
  O     -334.534    -416.331    -254.805
  O     -334.087    -414.239    -256.282
  O     -332.326    -415.128    -254.675
  H     -332.476    -414.235    -254.315
  H     -334.781    -417.529    -253.163
  H     -333.553    -416.296    -253.008
  H     -333.254    -417.707    -253.994

 6  7  8  9  10  11  12  13  14  15  16  26  30  31  32  33  35 0
 6-311+G(2d,p)
 ****
 37  38 0
 6-311+G(2d,p)
 ****
 1  2  3  4  5  17  18  19  20  21  22  23  24  25 0
 3-21G
 ****
 27  28  29  34  36  39  40  41  42  43  44  45  46 0
 3-21G
 ****


