%nproc=1
%NoSave
%Mem=1900MB
#P OB98/GEN NMR

erre ene a

0 1
  C     -194.288    -469.042    -646.321
  O     -194.235    -467.694    -646.732
  P     -194.982    -467.203    -648.064
  C     -192.997    -465.638    -648.601
  O     -194.402    -465.733    -648.368
  C     -192.544    -464.174    -648.563
  O     -193.262    -463.393    -649.527
  C     -192.768    -463.498    -647.211
  O     -191.787    -463.901    -646.273
  C     -192.696    -462.026    -647.613
  O     -191.333    -461.574    -647.700
  C     -193.355    -462.044    -649.022
  N     -194.729    -461.563    -648.986
  C     -194.899    -460.178    -648.816
  O     -193.907    -459.452    -648.670
  N     -196.169    -459.661    -648.780
  C     -197.182    -460.470    -648.867
  N     -198.420    -459.907    -648.811
  C     -197.061    -461.934    -649.019
  C     -195.813    -462.407    -649.068
  O     -196.471    -467.312    -648.048
  O     -194.291    -468.095    -649.210
  H     -191.001    -461.553    -646.768
  H     -194.616    -469.035    -649.176
  H     -197.930    -462.558    -649.083
  H     -195.622    -463.484    -649.182
  H     -192.781    -461.410    -649.720
  H     -193.219    -461.383    -646.892
  H     -193.778    -463.729    -646.849
  H     -191.470    -464.149    -648.821
  H     -198.470    -458.897    -648.672
  H     -192.794    -466.044    -649.596
  H     -199.287    -460.437    -648.836
  H     -192.466    -466.242    -647.865
  P     -192.242    -464.554    -644.883
  C     -190.377    -463.187    -643.749
  O     -191.001    -464.462    -643.879
  O     -192.876    -465.898    -644.987
  O     -193.269    -463.480    -644.280
  H     -194.038    -463.953    -643.928
  H     -189.791    -463.180    -642.825
  H     -191.129    -462.397    -643.713
  H     -189.706    -463.026    -644.603
  H     -193.730    -469.161    -645.416
  H     -193.868    -469.664    -647.084
  H     -195.306    -469.323    -646.152

 3  4  5  6  7  8  9  10  11  12  13  23  27  28  29  30  32 0
 6-311+G(2d,p)
 ****
 34  35 0
 6-311+G(2d,p)
 ****
 1  2  14  15  16  17  18  19  20  21  22  24  25  26 0
 3-21G
 ****
 31  33  36  37  38  39  40  41  42  43  44  45  46 0
 3-21G
 ****


