%nproc=1
%NoSave
%Mem=1900MB
#P OB98/GEN NMR

erre ene a

0 1
  C       95.550      16.122      55.433
  O       95.263      15.673      54.124
  H       94.693      16.672      55.828
  H       95.735      15.254      56.071
  H       96.438      16.760      55.439
  P       95.255      16.772      52.956
  C       92.724      17.160      53.380
  O       93.738      16.863      52.432
  C       91.586      17.934      52.719
  O       92.087      19.239      52.313
  C       90.995      17.250      51.476
  O       89.579      17.455      51.477
  C       91.606      18.031      50.327
  O       90.814      17.982      49.146
  C       91.714      19.425      50.937
  N       93.165      20.942      46.307
  C       92.019      20.390      46.757
  N       91.692      20.065      48.023
  C       92.668      20.427      48.874
  C       93.887      21.004      48.566
  C       94.132      21.248      47.203
  N       95.323      21.747      46.727
  N       94.643      21.174      49.709
  C       93.902      20.684      50.684
  N       92.701      20.220      50.228
  O       96.018      16.014      51.767
  O       95.899      18.073      53.292
  H       91.167      18.626      48.502
  H       96.978      16.159      51.851
  H       91.269      20.172      46.000
  H       94.196      20.614      51.722
  H       90.765      19.974      50.906
  H       92.597      17.624      50.094
  H       91.213      16.178      51.416
  H       90.805      18.112      53.469
  H       93.152      17.774      54.180
  H       95.447      21.787      45.727
  H       96.091      21.876      47.369
  H       92.350      16.228      53.814
  P       88.679      16.392      52.270
  C       87.816      15.173      50.137
  O       87.491      15.913      51.309
  O       87.930      17.289      53.364
  O       89.464      15.290      52.905
  H       87.783      16.776      54.178
  H       86.918      14.931      49.608
  H       88.322      14.271      50.413
  H       88.452      15.761      49.509

 6  7  8  9  10  11  12  13  14  15  25  28  32  33  34  35 0
 6-311+G(2d,p)
 ****
 36  39  40 0
 6-311+G(2d,p)
 ****
 1  2  3  4  5  16  17  18  19  20  21  22  23  24 0
 3-21G
 ****
 26  27  29  30  31  37  38  41  42  43  44  45  46  47 0
 3-21G
 ****
 48 0
 3-21G
 ****


