%nproc=1
%NoSave
%Mem=1900MB
#P OB98/GEN NMR

erre ene a

0 1
  C      -81.858     454.805     338.151
  O      -81.336     455.021     339.467
  P      -82.363     455.601     340.558
  C      -80.658     457.421     341.276
  O      -81.511     456.360     341.687
  C      -79.336     457.384     342.054
  O      -78.581     456.189     341.782
  C      -78.412     458.547     341.729
  O      -78.826     459.706     342.431
  C      -77.063     458.014     342.195
  O      -76.880     458.210     343.610
  C      -77.167     456.515     341.873
  N      -72.867     454.676     339.911
  C      -73.138     455.118     341.194
  N      -72.126     455.029     342.089
  N      -74.293     455.590     341.571
  C      -75.213     455.617     340.568
  C      -75.071     455.178     339.271
  C      -73.779     454.659     338.868
  O      -73.500     454.232     337.753
  N      -76.243     455.306     338.567
  C      -77.050     455.934     339.405
  N      -76.494     456.088     340.654
  O      -82.902     454.288     341.295
  O      -83.478     456.393     339.956
  H      -76.087     457.728     343.904
  H      -83.838     454.132     341.057
  H      -71.952     454.321     339.679
  H      -78.048     456.269     339.168
  H      -76.749     455.901     342.680
  H      -76.231     458.520     341.700
  H      -71.209     454.669     341.870
  H      -78.396     458.727     340.640
  H      -72.308     455.342     343.034
  H      -79.591     457.389     343.127
  H      -81.151     458.382     341.440
  H      -80.483     457.337     340.201
  P      -78.978     461.073     341.603
  C      -77.799     462.309     343.558
  O      -78.884     462.276     342.645
  O      -80.522     461.059     341.169
  O      -78.090     461.175     340.411
  H      -80.606     461.329     340.235
  H      -77.565     463.346     343.801
  H      -76.907     461.830     343.140
  H      -78.090     461.784     344.477
  H      -81.085     454.420     337.519
  H      -82.216     455.731     337.753
  H      -82.663     454.102     338.198

 3  4  5  6  7  8  9  10  11  12  23  26  30  31 0
 6-311+G(2d,p)
 ****
 33  35  36  37  38 0
 6-311+G(2d,p)
 ****
 1  2  13  14  15  16  17  18  19  20  21  22  24  25 0
 3-21G
 ****
 27  28  29  32  34  39  40  41  42  43  44  45  46  47  48  49 0
 3-21G
 ****


