%nproc=1
%NoSave
%Mem=1900MB
#P OB98/GEN NMR

erre ene a

0 1
  C     -362.465    -105.236    -651.705
  O     -362.627    -104.488    -650.497
  P     -362.599    -102.883    -650.644
  C     -360.117    -102.958    -651.412
  O     -361.430    -102.500    -651.684
  C     -359.082    -102.078    -652.129
  O     -359.294    -100.670    -651.894
  C     -357.647    -102.369    -651.690
  O     -357.160    -103.531    -652.352
  C     -356.928    -101.095    -652.130
  O     -356.564    -101.148    -653.532
  C     -357.995    -100.020    -651.908
  N     -356.338     -95.637    -649.922
  C     -356.200     -96.151    -651.210
  N     -355.543     -95.365    -652.093
  N     -356.657     -97.314    -651.583
  C     -357.301     -97.986    -650.595
  C     -357.521     -97.576    -649.296
  C     -357.006     -96.283    -648.895
  O     -357.119     -95.783    -647.781
  N     -358.256     -98.505    -648.600
  C     -358.356     -99.523    -649.441
  N     -357.850     -99.234    -650.686
  O     -362.028    -102.389    -649.223
  O     -363.937    -102.294    -650.933
  H     -355.967    -100.404    -653.730
  H     -362.743    -101.953    -648.720
  H     -355.961     -94.749    -649.692
  H     -358.815    -100.468    -649.203
  H     -358.026     -99.285    -652.727
  H     -356.006    -100.939    -651.570
  H     -355.165     -94.455    -651.883
  H     -357.593    -102.474    -650.601
  H     -355.435     -95.712    -653.048
  H     -359.189    -102.262    -653.213
  H     -360.005    -103.996    -651.733
  H     -359.954    -102.942    -650.327
  P     -357.331    -104.941    -651.599
  C     -354.849    -104.960    -650.802
  O     -356.214    -104.991    -650.436
  O     -356.797    -106.002    -652.685
  O     -358.725    -105.260    -651.165
  H     -357.400    -106.759    -652.709
  H     -354.286    -104.484    -649.988
  H     -354.687    -104.386    -651.725
  H     -354.482    -105.968    -650.936
  H     -362.500    -106.282    -651.484
  H     -361.521    -104.997    -652.149
  H     -363.252    -104.988    -652.386

 3  4  5  6  7  8  9  10  11  12  23  26  30  31 0
 6-311+G(2d,p)
 ****
 33  35  36  37  38 0
 6-311+G(2d,p)
 ****
 1  2  13  14  15  16  17  18  19  20  21  22  24  25 0
 3-21G
 ****
 27  28  29  32  34  39  40  41  42  43  44  45  46  47  48  49 0
 3-21G
 ****


