%nproc=1
%NoSave
%Mem=1900MB
#P OB98/GEN NMR

erre ene a

0 1
  C     -937.983     837.462     656.755
  O     -938.639     838.446     655.983
  H     -937.106     837.910     657.226
  H     -937.662     836.635     656.127
  H     -938.653     837.093     657.547
  P     -939.903     837.948     655.122
  C     -938.699     838.885     653.005
  O     -939.860     838.890     653.814
  C     -939.093     838.850     651.526
  O     -939.703     837.578     651.191
  C     -940.117     839.907     651.122
  O     -939.559     841.196     650.951
  C     -940.586     839.318     649.793
  O     -939.562     839.524     648.792
  C     -940.692     837.823     650.165
  N     -942.036     837.449     650.653
  C     -942.966     837.045     649.671
  O     -942.651     837.016     648.481
  N     -944.239     836.719     650.071
  C     -944.550     836.773     651.332
  N     -945.828     836.454     651.668
  C     -943.603     837.182     652.402
  C     -942.380     837.500     651.983
  O     -941.153     838.518     655.933
  O     -939.961     836.481     654.833
  H     -939.426     840.487     648.737
  H     -941.988     838.392     655.411
  H     -943.928     837.220     653.421
  H     -941.626     837.816     652.712
  H     -940.446     837.189     649.305
  H     -941.513     839.763     649.415
  H     -940.964     839.926     651.805
  H     -938.171     838.939     650.936
  H     -946.470     836.221     650.914
  H     -938.103     838.007     653.258
  H     -946.219     836.582     652.593
  H     -938.107     839.789     653.197
  P     -940.201     842.393     651.807
  C     -940.018     843.971     649.744
  O     -939.732     843.758     651.110
  O     -939.372     842.360     653.175
  O     -941.689     842.277     652.046
  H     -939.936     842.614     653.933
  H     -939.637     844.925     649.444
  H     -941.077     843.947     649.593
  H     -939.557     843.203     649.159

 6  7  8  9  10  11  12  13  14  15  16  26  30  31  32  33  35 0
 6-311+G(2d,p)
 ****
 37  38 0
 6-311+G(2d,p)
 ****
 1  2  3  4  5  17  18  19  20  21  22  23  24  25 0
 3-21G
 ****
 27  28  29  34  36  39  40  41  42  43  44  45  46 0
 3-21G
 ****


