%nproc=1
%NoSave
%Mem=1900MB
#P OB98/GEN NMR

erre ene a

0 1
  C      660.796     324.382    -789.465
  O      659.510     324.826    -789.031
  P      658.908     326.145    -789.731
  C      658.517     327.298    -787.413
  O      657.985     326.878    -788.658
  C      657.395     327.455    -786.364
  O      656.356     328.305    -786.929
  C      656.691     326.170    -785.964
  O      655.993     326.392    -784.727
  C      655.678     326.014    -787.077
  O      654.626     325.122    -786.711
  C      655.240     327.472    -787.334
  N      654.906     327.742    -788.754
  C      653.709     327.258    -789.259
  O      652.905     326.598    -788.596
  N      653.465     327.503    -790.584
  C      654.264     328.213    -791.431
  O      654.042     328.328    -792.636
  C      655.448     328.834    -790.821
  C      655.716     328.564    -789.541
  O      657.875     325.554    -790.808
  O      659.941     327.015    -790.368
  H      653.930     325.192    -787.408
  H      658.253     325.638    -791.709
  H      652.625     327.090    -790.985
  H      656.066     329.456    -791.442
  H      656.598     329.000    -789.075
  H      654.362     327.744    -786.746
  H      656.154     325.604    -787.961
  H      657.338     325.298    -785.870
  H      657.793     327.972    -785.482
  H      659.067     328.228    -787.524
  H      659.234     326.544    -787.049
  P      656.414     325.491    -783.462
  C      654.205     325.560    -782.143
  O      655.546     326.020    -782.219
  O      657.886     325.346    -783.214
  O      655.725     324.073    -783.791
  H      656.148     323.369    -783.260
  H      653.898     325.527    -781.101
  H      654.086     324.572    -782.586
  H      653.566     326.277    -782.677
  H      661.072     323.503    -788.921
  H      661.518     325.152    -789.288
  H      660.762     324.158    -790.511

 3  4  5  6  7  8  9  10  11  12  13  23  28  29  30  31  32 0
 6-311+G(2d,p)
 ****
 33  34 0
 6-311+G(2d,p)
 ****
 1  2  14  15  16  17  18  19  20  21  22  24  25  26  27 0
 3-21G
 ****
 35  36  37  38  39  40  41  42  43  44  45 0
 3-21G
 ****


