%nproc=1
%NoSave
%Mem=1900MB
#P OB98/GEN NMR

erre ene a

0 1
  C     -275.334     482.487    -632.481
  O     -274.419     482.736    -633.533
  H     -276.304     482.228    -632.915
  H     -275.453     483.381    -631.863
  H     -274.987     481.651    -631.868
  P     -272.930     483.162    -633.099
  C     -271.835     480.829    -633.363
  O     -272.257     481.843    -632.473
  C     -270.327     480.598    -633.235
  O     -269.595     481.775    -633.637
  C     -269.863     480.257    -631.825
  O     -270.044     478.880    -631.548
  C     -268.397     480.658    -631.888
  O     -267.593     479.633    -632.515
  C     -268.446     481.922    -632.759
  N     -265.967     486.060    -631.267
  C     -265.569     485.034    -632.097
  N     -264.291     485.088    -632.551
  N     -266.333     484.036    -632.437
  C     -267.565     484.093    -631.876
  C     -268.086     485.066    -631.057
  C     -267.231     486.186    -630.716
  O     -267.549     487.162    -630.038
  N     -269.383     484.787    -630.714
  C     -269.632     483.622    -631.292
  N     -268.552     483.156    -631.995
  O     -273.168     484.097    -631.817
  O     -272.134     483.860    -634.148
  H     -267.526     478.869    -631.915
  H     -272.455     484.762    -631.777
  H     -265.334     486.813    -631.054
  H     -270.566     483.090    -631.219
  H     -267.559     482.019    -633.393
  H     -267.975     480.812    -630.893
  H     -263.582     485.624    -632.073
  H     -270.380     480.880    -631.084
  H     -263.983     484.326    -633.141
  H     -270.055     479.799    -633.934
  H     -272.057     481.137    -634.394
  H     -272.370     479.900    -633.143
  P     -269.986     478.412    -630.013
  C     -272.493     478.773    -629.391
  O     -271.151     479.218    -629.249
  O     -268.645     479.096    -629.472
  O     -269.985     476.929    -629.805
  H     -268.366     478.676    -628.638
  H     -273.141     479.409    -628.826
  H     -272.576     477.769    -629.031
  H     -272.772     478.805    -630.423

 6  7  8  9  10  11  12  13  14  15  26  29  33  34 0
 6-311+G(2d,p)
 ****
 36  38  39  40  41 0
 6-311+G(2d,p)
 ****
 1  2  3  4  5  16  17  18  19  20  21  22  23  24  25 0
 3-21G
 ****
 27  28  30  31  32  35  37  42  43  44  45  46  47 0
 3-21G
 ****
 48  49 0
 3-21G
 ****


