%nproc=1
%NoSave
%Mem=1900MB
#P OB98/GEN NMR

erre ene a

0 1
  C        3.891    -252.542    -193.331
  O        4.537    -252.089    -192.156
  H        2.867    -252.158    -193.335
  H        3.856    -253.635    -193.360
  H        4.413    -252.163    -194.213
  P        5.954    -252.738    -191.775
  C        4.895    -254.504    -190.216
  O        5.752    -253.370    -190.307
  C        4.206    -254.570    -188.853
  O        5.180    -254.669    -187.792
  C        3.381    -253.338    -188.512
  O        2.243    -253.146    -189.316
  C        3.215    -253.481    -187.006
  O        2.147    -254.362    -186.659
  C        4.573    -254.111    -186.604
  N        5.454    -253.155    -185.949
  C        6.087    -253.599    -184.792
  O        5.914    -254.723    -184.313
  N        6.908    -252.696    -184.173
  C        7.114    -251.403    -184.565
  O        7.850    -250.635    -183.952
  C        6.389    -250.977    -185.774
  C        5.603    -251.856    -186.398
  O        7.140    -251.825    -191.886
  O        6.046    -254.034    -192.711
  H        2.130    -254.421    -185.683
  H        6.972    -254.381    -192.747
  H        7.391    -253.005    -183.342
  H        6.524    -249.957    -186.103
  H        5.063    -251.566    -187.294
  H        4.410    -254.950    -185.914
  H        3.013    -252.526    -186.516
  H        4.013    -252.451    -188.668
  H        3.592    -255.480    -188.826
  H        5.510    -255.400    -190.355
  H        4.145    -254.462    -191.017
  P        1.802    -251.733    -189.911
  C       -0.339    -251.348    -188.458
  O        0.215    -251.584    -189.750
  O        2.421    -251.327    -191.210
  O        2.353    -250.717    -188.777
  H        2.630    -249.899    -189.234
  H       -1.404    -251.275    -188.534
  H        0.053    -250.434    -188.063
  H       -0.082    -252.157    -187.807

 6  7  8  9  10  11  12  13  14  15  16  26  31  32  33  34  35 0
 6-311+G(2d,p)
 ****
 36  37 0
 6-311+G(2d,p)
 ****
 1  2  3  4  5  17  18  19  20  21  22  23  24  25 0
 3-21G
 ****
 27  28  29  30  38  39  40  41  42  43  44  45 0
 3-21G
 ****


