%nproc=1
%NoSave
%Mem=1900MB
#P OB98/GEN NMR

erre ene a

0 1
  C       40.927     -79.811     -24.598
  O       40.464     -78.964     -23.565
  H       40.151     -80.546     -24.824
  H       41.830     -80.336     -24.274
  H       41.139     -79.229     -25.499
  P       41.450     -77.783     -23.113
  C       41.331     -77.647     -20.512
  O       40.829     -77.187     -21.759
  C       40.297     -77.407     -19.406
  O       40.418     -76.029     -18.946
  C       38.843     -77.599     -19.869
  O       38.063     -78.046     -18.747
  C       38.441     -76.178     -20.223
  O       37.041     -76.069     -20.311
  C       39.114     -75.428     -19.080
  N       36.507     -71.187     -20.180
  C       36.106     -72.448     -19.909
  N       36.865     -73.523     -19.615
  C       38.167     -73.189     -19.590
  C       38.726     -71.951     -19.848
  C       37.833     -70.914     -20.162
  N       38.237     -69.633     -20.463
  N       40.105     -72.012     -19.752
  C       40.368     -73.264     -19.436
  N       39.228     -74.009     -19.326
  O       41.170     -76.638     -24.196
  O       42.894     -78.142     -23.037
  H       36.642     -75.925     -19.428
  H       41.801     -76.718     -24.935
  H       35.033     -72.615     -19.931
  H       41.354     -73.682     -19.286
  H       38.584     -75.556     -18.128
  H       38.856     -75.881     -21.190
  H       38.740     -78.309     -20.693
  H       40.532     -78.049     -18.549
  H       42.253     -77.103     -20.286
  H       41.549     -78.717     -20.580
  H       37.533     -68.955     -20.704
  H       39.224     -69.421     -20.488
  P       37.526     -79.560     -18.723
  C       35.063     -78.720     -18.543
  O       36.055     -79.624     -18.085
  O       38.424     -80.213     -17.566
  O       37.698     -80.321     -19.997
  H       38.765     -81.077     -17.862
  H       34.148     -78.898     -18.017
  H       34.905     -78.865     -19.591
  H       35.387     -77.716     -18.366

 6  7  8  9  10  11  12  13  14  15  25  28  32  33  34  35 0
 6-311+G(2d,p)
 ****
 36  37  40 0
 6-311+G(2d,p)
 ****
 1  2  3  4  5  16  17  18  19  20  21  22  23  24 0
 3-21G
 ****
 26  27  29  30  31  38  39 41  42  43  44  45  46  47  48 0
 3-21G
 ****


