%nproc=1
%NoSave
%Mem=1900MB
#P OB98/GEN NMR

erre ene a

0 1
  C      -34.785    -614.819    -152.350
  O      -35.116    -616.090    -152.876
  H      -33.728    -614.819    -152.075
  H      -35.387    -614.623    -151.458
  H      -34.958    -614.025    -153.088
  P      -36.444    -616.238    -153.756
  C      -38.791    -615.374    -153.100
  O      -37.704    -616.226    -152.753
  C      -39.837    -615.311    -151.989
  O      -39.250    -614.797    -150.779
  C      -40.991    -614.366    -152.339
  O      -42.024    -614.932    -153.123
  C      -41.514    -613.991    -150.949
  O      -42.452    -614.971    -150.471
  C      -40.243    -614.000    -150.092
  N      -40.704    -609.634    -147.480
  C      -41.526    -610.740    -147.476
  N      -42.650    -610.644    -146.724
  N      -41.283    -611.824    -148.167
  C      -40.179    -611.739    -148.933
  C      -39.287    -610.694    -149.035
  C      -39.536    -609.517    -148.227
  O      -38.842    -608.502    -148.201
  N      -38.276    -610.967    -149.931
  C      -38.599    -612.146    -150.422
  N      -39.725    -612.667    -149.837
  O      -36.404    -617.765    -154.238
  O      -36.547    -615.304    -154.925
  H      -43.221    -614.973    -151.072
  H      -36.896    -617.863    -155.078
  H      -40.925    -608.832    -146.906
  H      -38.034    -612.677    -151.184
  H      -40.417    -614.473    -149.123
  H      -42.037    -613.034    -150.963
  H      -42.938    -609.791    -146.276
  H      -40.613    -613.457    -152.820
  H      -43.395    -611.311    -146.906
  H      -40.199    -616.324    -151.768
  H      -39.232    -615.789    -154.008
  H      -38.423    -614.369    -153.343
  P      -42.666    -614.088    -154.330
  C      -44.318    -612.091    -154.514
  O      -43.568    -612.945    -153.677
  O      -43.727    -615.123    -154.950
  O      -41.684    -613.626    -155.358
  H      -43.346    -615.587    -155.712
  H      -44.860    -611.390    -153.914
  H      -45.006    -612.672    -155.092
  H      -43.657    -611.564    -155.170

 6  7  8  9  10  11  12  13  14  15  26  29  33  34 0
 6-311+G(2d,p)
 ****
 36  38  39  40  41 0
 6-311+G(2d,p)
 ****
 1  2  3  4  5  16  17  18  19  20  21  22  23  24  25 0
 3-21G
 ****
 27  28  30  31  32  35  37  42  43  44  45  46  47 0
 3-21G
 ****
 48  49 0
 3-21G
 ****


