%nproc=1
%NoSave
%Mem=1900MB
#P OB98/GEN NMR

erre ene a

0 1
  C       30.585     759.818    -513.040
  O       29.521     760.702    -512.779
  H       31.340     760.346    -513.629
  H       30.229     758.965    -513.622
  H       31.049     759.467    -512.115
  P       28.414     760.289    -511.695
  C       28.860     762.269    -510.111
  O       28.911     760.863    -510.286
  C       28.485     762.638    -508.669
  O       27.095     762.260    -508.435
  C       29.335     761.928    -507.613
  O       29.421     762.794    -506.476
  C       28.482     760.718    -507.275
  O       28.857     760.129    -506.052
  C       27.078     761.346    -507.321
  N       26.022     760.344    -507.439
  C       25.318     760.039    -506.279
  O       25.578     760.550    -505.172
  N       24.333     759.098    -506.395
  C       24.026     758.394    -507.528
  O       23.154     757.539    -507.557
  C       24.834     758.733    -508.717
  C       25.772     759.675    -508.616
  O       28.031     758.839    -511.681
  O       27.160     761.219    -512.030
  H       29.795     759.851    -506.080
  H       26.328     760.769    -511.797
  H       23.813     758.875    -505.558
  H       24.629     758.185    -509.635
  H       26.380     759.943    -509.478
  H       26.888     761.925    -506.409
  H       28.580     759.951    -508.047
  H       30.331     761.654    -507.964
  H       28.535     763.731    -508.554
  H       28.099     762.666    -510.805
  H       29.833     762.714    -510.364
  P       30.688     763.770    -506.241
  C       29.785     766.013    -507.126
  O       30.667     764.918    -507.350
  O       31.990     763.044    -506.113
  O       30.341     764.566    -504.890
  H       31.169     764.811    -504.424
  H       29.866     766.708    -507.936
  H       30.047     766.501    -506.210
  H       28.779     765.654    -507.063

 6  7  8  9  10  11  12  13  14  15  16  26  31  32  33  34  35 0
 6-311+G(2d,p)
 ****
 36  37 0
 6-311+G(2d,p)
 ****
 1  2  3  4  5  17  18  19  20  21  22  23  24  25 0
 3-21G
 ****
 27  28  29  30  38  39  40  41  42  43  44  45 0
 3-21G
 ****


