%nproc=1
%NoSave
%Mem=1900MB
#P OB98/GEN NMR

erre ene a

0 1
  C      -26.824      10.093    -230.245
  O      -26.416       8.806    -229.768
  P      -25.686       7.830    -230.815
  C      -23.583       6.367    -230.260
  O      -24.911       6.746    -229.923
  C      -22.892       5.752    -229.046
  O      -22.556       6.774    -228.075
  C      -23.745       4.743    -228.289
  O      -23.834       3.513    -228.990
  C      -22.999       4.671    -226.963
  O      -21.856       3.808    -227.077
  C      -22.536       6.134    -226.778
  N      -23.337       6.867    -225.808
  C      -23.112       6.547    -224.470
  O      -22.312       5.684    -224.110
  N      -23.859       7.241    -223.556
  C      -24.807       8.181    -223.846
  O      -25.438       8.778    -222.982
  C      -25.035       8.440    -225.275
  C      -24.302       7.782    -226.178
  O      -24.533       8.785    -231.373
  O      -26.615       7.282    -231.847
  H      -24.180       9.390    -230.699
  H      -21.458       3.760    -226.184
  H      -23.701       7.035    -222.582
  H      -25.798       9.160    -225.541
  H      -24.458       7.956    -227.237
  H      -21.492       6.159    -226.443
  H      -23.623       4.284    -226.152
  H      -24.750       5.151    -228.127
  H      -21.961       5.281    -229.386
  H      -23.018       7.245    -230.587
  H      -23.617       5.664    -231.096
  P      -25.258       3.155    -229.648
  C      -25.878       3.063    -232.186
  O      -24.964       2.732    -231.164
  O      -25.916       4.612    -229.769
  O      -26.059       2.181    -228.849
  H      -25.300       5.279    -230.108
  H      -25.361       3.013    -233.148
  H      -26.276       4.073    -232.055
  H      -26.700       2.343    -232.189
  H      -27.293      10.635    -229.451
  H      -27.517       9.971    -231.052
  H      -25.967      10.634    -230.589

 3  4  5  6  7  8  9  10  11  12  13  24  28  29  30  31  32 0
 6-311+G(2d,p)
 ****
 33  34 0
 6-311+G(2d,p)
 ****
 1  2  14  15  16  17  18  19  20  21  22  23  25  26  27 0
 3-21G
 ****
 35  36  37  38  39  40  41  42  43  44  45 0
 3-21G
 ****


