%nproc=1
%NoSave
%Mem=1900MB
#P OB98/GEN NMR

erre ene a

0 1
  C     -667.787     188.063     292.104
  O     -668.556     188.957     291.321
  H     -666.844     188.546     292.365
  H     -667.572     187.160     291.522
  H     -668.316     187.797     293.026
  P     -670.105     188.585     291.106
  C     -670.833     190.738     292.370
  O     -670.916     189.321     292.287
  C     -672.047     191.373     291.703
  O     -673.225     191.175     292.511
  C     -671.927     192.883     291.484
  O     -671.211     193.184     290.296
  C     -673.399     193.261     291.349
  O     -673.867     192.905     290.031
  C     -674.057     192.370     292.409
  N     -677.055     195.038     295.521
  C     -677.255     194.664     294.203
  N     -678.417     195.046     293.641
  N     -676.406     193.965     293.511
  C     -675.263     193.663     294.192
  C     -674.948     193.990     295.498
  C     -675.914     194.741     296.260
  O     -675.790     195.099     297.432
  N     -673.712     193.511     295.848
  C     -673.276     192.909     294.758
  N     -674.177     192.978     293.725
  O     -670.159     187.037     291.519
  O     -670.625     188.798     289.726
  H     -674.820     193.087     290.011
  H     -670.192     186.499     290.706
  H     -677.746     195.580     296.010
  H     -672.322     192.413     294.660
  H     -675.065     192.052     292.104
  H     -673.562     194.342     291.463
  H     -679.111     195.608     294.112
  H     -671.501     193.386     292.353
  H     -678.594     194.774     292.681
  H     -672.216     190.859     290.748
  H     -669.923     191.069     291.864
  H     -670.789     191.024     293.424
  P     -670.239     194.459     290.294
  C     -668.289     192.931     291.082
  O     -669.028     194.130     291.299
  O     -671.099     195.552     291.088
  O     -669.835     194.955     288.952
  H     -671.373     196.269     290.475
  H     -667.521     192.846     291.822
  H     -667.845     192.957     290.109
  H     -668.946     192.089     291.152

 6  7  8  9  10  11  12  13  14  15  26  29  33  34 0
 6-311+G(2d,p)
 ****
 36  38  39  40  41 0
 6-311+G(2d,p)
 ****
 1  2  3  4  5  16  17  18  19  20  21  22  23  24  25 0
 3-21G
 ****
 27  28  30  31  32  35  37  42  43  44  45  46  47 0
 3-21G
 ****
 48  49 0
 3-21G
 ****


