%nproc=1
%NoSave
%Mem=1900MB
#P OB98/GEN NMR

erre ene a

0 1
  C      210.791      86.819    -228.035
  O      209.752      85.929    -228.407
  P      208.767      85.421    -227.246
  C      208.370      83.128    -228.408
  O      208.859      83.821    -227.264
  C      208.299      81.629    -228.130
  O      209.629      81.081    -228.045
  C      207.622      81.272    -226.819
  O      206.217      81.370    -226.943
  C      208.125      79.852    -226.596
  O      207.293      78.894    -227.272
  C      209.539      79.892    -227.225
  N      210.596      79.853    -226.230
  C      211.092      78.580    -225.919
  O      210.620      77.582    -226.469
  N      212.080      78.470    -224.971
  C      212.526      79.536    -224.381
  N      213.509      79.371    -223.455
  C      212.016      80.892    -224.665
  C      211.055      80.977    -225.583
  O      207.314      85.720    -227.845
  O      208.980      86.071    -225.918
  H      206.419      78.948    -226.836
  H      206.664      85.850    -227.128
  H      212.421      81.749    -224.143
  H      210.622      81.933    -225.851
  H      209.679      79.042    -227.904
  H      208.125      79.580    -225.538
  H      207.979      81.922    -226.012
  H      207.787      81.147    -228.976
  H      213.833      78.426    -223.280
  H      209.043      83.303    -229.250
  H      213.936      80.136    -222.958
  H      207.380      83.522    -228.665
  P      205.408      82.040    -225.733
  C      203.300      81.888    -227.189
  O      203.889      81.567    -225.945
  O      205.346      83.577    -226.178
  O      205.970      81.873    -224.361
  H      204.955      84.114    -225.464
  H      202.337      81.380    -227.263
  H      203.938      81.555    -228.012
  H      203.136      82.967    -227.257
  H      211.367      87.075    -228.899
  H      211.423      86.347    -227.312
  H      210.367      87.706    -227.613

 3  4  5  6  7  8  9  10  11  12  13  21  23  27  28  29  30  32 0
 6-311+G(2d,p)
 ****
 34  35 0
 6-311+G(2d,p)
 ****
 1  2  14  15  16  17  18  19  20  22  24  25  26 0
 3-21G
 ****
 31  33  36  37  38  39  40  41  42  43  44  45  46 0
 3-21G
 ****


