%nproc=1
%NoSave
%Mem=1900MB
#P OB98/GEN NMR

erre ene a

0 1
  C     -375.010     795.143    -899.466
  O     -375.727     793.939    -899.566
  P     -377.148     793.872    -898.826
  C     -376.128     793.556    -896.456
  O     -376.938     792.995    -897.496
  C     -376.123     792.631    -895.246
  O     -377.470     792.492    -894.726
  C     -375.643     791.211    -895.566
  O     -374.229     791.151    -895.656
  C     -376.215     790.457    -894.346
  O     -375.309     790.488    -893.236
  C     -377.515     791.214    -894.046
  N     -378.714     790.479    -894.376
  C     -379.104     789.469    -893.476
  O     -378.423     789.263    -892.466
  N     -380.219     788.722    -893.776
  C     -380.908     788.959    -894.856
  N     -381.989     788.204    -895.096
  C     -380.502     789.993    -895.846
  C     -379.410     790.710    -895.516
  O     -378.025     792.903    -899.786
  O     -377.828     795.214    -898.636
  H     -375.412     791.361    -892.816
  H     -378.985     793.096    -899.706
  H     -381.091     790.136    -896.746
  H     -379.056     791.494    -896.216
  H     -377.568     791.475    -892.956
  H     -376.377     789.381    -894.576
  H     -376.140     790.834    -896.466
  H     -375.498     793.078    -894.466
  H     -382.206     787.481    -894.396
  H     -376.549     794.525    -896.146
  H     -382.578     788.313    -895.896
  H     -375.128     793.710    -896.846
  P     -373.627     790.004    -896.586
  C     -373.517     788.338    -894.606
  O     -372.773     789.071    -895.566
  O     -372.458     790.775    -897.386
  O     -374.570     789.266    -897.516
  H     -372.069     790.204    -898.056
  H     -372.825     787.644    -894.106
  H     -374.291     787.750    -895.116
  H     -373.967     789.019    -893.876
  H     -374.087     795.054    -900.000
  H     -374.807     795.353    -898.436
  H     -375.589     795.939    -899.885

 3  4  5  6  7  8  9  10  11  12  13  21  23  27  28  29  30  32 0
 6-311+G(2d,p)
 ****
 34  35 0
 6-311+G(2d,p)
 ****
 1  2  14  15  16  17  18  19  20  22  24  25  26 0
 3-21G
 ****
 31  33  36  37  38  39  40  41  42  43  44  45  46 0
 3-21G
 ****


