%nproc=1
%NoSave
%Mem=1900MB
#P OB98/GEN NMR

erre ene a

0 1
  C     -344.569     473.108     398.885
  O     -344.995     471.946     398.190
  P     -344.414     470.529     398.670
  C     -346.250     470.542     400.558
  O     -345.593     469.842     399.515
  C     -347.193     469.602     401.313
  O     -348.303     469.239     400.468
  C     -346.561     468.285     401.745
  O     -345.732     468.448     402.888
  C     -347.797     467.428     401.973
  O     -348.380     467.714     403.257
  C     -348.734     467.915     400.848
  N     -348.761     467.016     399.693
  C     -349.399     465.795     399.880
  O     -349.920     465.463     400.942
  N     -349.404     464.950     398.801
  C     -348.789     465.176     397.603
  O     -348.786     464.369     396.682
  C     -348.100     466.472     397.478
  C     -348.118     467.318     398.510
  O     -343.353     471.009     399.767
  O     -343.855     469.716     397.554
  H     -343.599     471.861     400.162
  H     -349.121     467.085     403.369
  H     -349.882     464.069     398.903
  H     -347.596     466.680     396.541
  H     -347.608     468.269     398.436
  H     -349.758     468.020     401.222
  H     -347.576     466.354     401.947
  H     -345.972     467.869     400.921
  H     -347.588     470.142     402.182
  H     -346.823     471.368     400.126
  H     -345.497     470.958     401.237
  P     -344.476     467.445     403.010
  C     -342.813     469.183     401.990
  O     -343.175     468.371     403.088
  O     -344.435     466.820     401.540
  O     -344.620     466.442     404.110
  H     -344.581     467.475     400.841
  H     -342.149     469.976     402.344
  H     -343.689     469.642     401.527
  H     -342.282     468.579     401.248
  H     -345.035     473.971     398.457
  H     -343.506     473.201     398.806
  H     -344.845     473.028     399.916

 3  4  5  6  7  8  9  10  11  12  13  24  28  29  30  31  32 0
 6-311+G(2d,p)
 ****
 33  34 0
 6-311+G(2d,p)
 ****
 1  2  14  15  16  17  18  19  20  21  22  23  25  26  27 0
 3-21G
 ****
 35  36  37  38  39  40  41  42  43  44  45 0
 3-21G
 ****


