%nproc=1
%NoSave
%Mem=1900MB
#P OB98/GEN NMR

erre ene a

0 1
  C      170.929    -509.385     592.566
  O      170.447    -509.093     591.275
  H      172.020    -509.300     592.561
  H      170.659    -510.405     592.847
  H      170.536    -508.674     593.298
  P      168.871    -508.873     591.053
  C      168.272    -511.139     589.975
  O      168.200    -510.328     591.149
  C      168.027    -512.609     590.349
  O      168.322    -513.428     589.165
  C      168.910    -513.121     591.510
  O      168.168    -514.077     592.268
  C      170.045    -513.803     590.747
  O      170.729    -514.716     591.561
  C      169.258    -514.435     589.589
  N      170.148    -514.853     588.512
  C      171.146    -515.764     588.836
  O      171.315    -516.227     589.956
  N      172.014    -516.091     587.823
  C      172.046    -515.508     586.583
  O      172.893    -515.775     585.744
  C      170.998    -514.509     586.311
  C      170.110    -514.238     587.279
  O      168.481    -508.064     589.857
  O      168.388    -508.196     592.425
  H      170.110    -515.411     591.863
  H      167.544    -507.715     592.292
  H      172.733    -516.759     588.033
  H      171.006    -514.014     585.346
  H      169.340    -513.479     587.121
  H      168.677    -515.314     589.935
  H      170.756    -513.054     590.378
  H      169.263    -512.307     592.158
  H      166.955    -512.746     590.576
  H      169.284    -511.030     589.560
  H      167.529    -510.810     589.247
  P      166.923    -513.651     593.189
  C      168.220    -512.894     595.274
  O      167.349    -512.490     594.235
  O      166.200    -514.802     593.832
  O      165.928    -512.885     592.179
  H      165.019    -513.199     592.326
  H      168.437    -512.056     595.904
  H      169.130    -513.268     594.852
  H      167.753    -513.664     595.852

 6  7  8  9  10  11  12  13  14  15  16  26  31  32  33  34  35 0
 6-311+G(2d,p)
 ****
 36  37 0
 6-311+G(2d,p)
 ****
 1  2  3  4  5  17  18  19  20  21  22  23  24  25 0
 3-21G
 ****
 27  28  29  30  38  39  40  41  42  43  44  45 0
 3-21G
 ****


