%nproc=1
%NoSave
%Mem=1900MB
#P OB98/GEN NMR

erre ene a

0 1
  C      129.003     -31.182      84.837
  O      129.666     -31.786      85.930
  H      129.149     -31.804      83.950
  H      129.420     -30.190      84.645
  H      127.932     -31.104      85.042
  P      129.618     -30.986      87.320
  C      132.199     -30.753      87.318
  O      131.048     -31.205      88.016
  C      133.467     -31.294      87.972
  O      133.553     -30.872      89.350
  C      133.574     -32.815      87.971
  O      134.091     -33.287      86.738
  C      134.528     -33.044      89.135
  O      135.896     -32.819      88.734
  C      134.073     -31.977      90.138
  N      133.143     -35.127      93.972
  C      134.265     -34.995      93.179
  N      135.285     -35.847      93.425
  N      134.378     -34.114      92.221
  C      133.262     -33.367      92.049
  C      132.088     -33.404      92.766
  C      131.999     -34.348      93.859
  O      131.066     -34.456      94.649
  N      131.194     -32.474      92.300
  C      131.813     -31.903      91.285
  N      133.069     -32.415      91.090
  O      128.631     -31.868      88.224
  O      129.149     -29.574      87.231
  H      136.480     -32.961      89.500
  H      128.087     -31.269      88.768
  H      133.125     -35.802      94.715
  H      131.401     -31.113      90.671
  H      134.910     -31.586      90.727
  H      134.480     -34.072      89.497
  H      135.150     -36.711      93.930
  H      132.607     -33.279      88.199
  H      136.076     -35.797      92.794
  H      134.323     -30.849      87.447
  H      132.219     -29.659      87.339
  H      132.146     -31.090      86.278
  P      133.341     -34.507      86.021
  C      134.927     -36.556      86.197
  O      134.459     -35.478      85.400
  O      132.686     -33.817      84.733
  O      132.302     -35.177      86.854
  H      131.726     -33.712      84.866
  H      135.663     -37.109      85.652
  H      134.108     -37.199      86.444
  H      135.362     -36.172      87.096

 6  7  8  9  10  11  12  13  14  15  26  29  33  34 0
 6-311+G(2d,p)
 ****
 36  38  39  40  41 0
 6-311+G(2d,p)
 ****
 1  2  3  4  5  16  17  18  19  20  21  22  23  24  25 0
 3-21G
 ****
 27  28  30  31  32  35  37  42  43  44  45  46  47 0
 3-21G
 ****
 48  49 0
 3-21G
 ****


