%nproc=1
%NoSave
%Mem=1900MB
#P OB98/GEN NMR

erre ene a

0 1
  C      191.480     -66.173    -397.186
  O      190.935     -67.390    -397.655
  H      191.926     -65.639    -398.028
  H      192.258     -66.369    -396.443
  H      190.695     -65.553    -396.748
  P      190.279     -68.360    -396.560
  C      187.764     -68.292    -397.204
  O      188.781     -67.839    -396.322
  C      186.441     -68.391    -396.452
  O      186.587     -69.275    -395.315
  C      185.952     -67.069    -395.878
  O      185.349     -66.246    -396.859
  C      184.963     -67.559    -394.832
  O      183.678     -67.836    -395.411
  C      185.634     -68.855    -394.321
  N      186.250     -68.674    -393.011
  C      186.211     -69.781    -392.169
  O      185.693     -70.852    -392.486
  N      186.756     -69.605    -390.925
  C      187.288     -68.447    -390.442
  O      187.694     -68.334    -389.291
  C      187.315     -67.313    -391.383
  C      186.794     -67.474    -392.603
  O      191.043     -67.953    -395.212
  O      190.395     -69.817    -396.855
  H      191.720     -68.621    -395.001
  H      183.254     -68.496    -394.829
  H      186.726     -70.393    -390.297
  H      187.736     -66.380    -391.033
  H      186.784     -66.647    -393.305
  H      184.890     -69.658    -394.236
  H      184.804     -66.815    -394.052
  H      186.774     -66.550    -395.370
  H      185.687     -68.823    -397.128
  H      188.029     -69.282    -397.592
  H      187.683     -67.595    -398.044
  P      184.966     -64.741    -396.466
  C      186.251     -63.586    -398.446
  O      186.131     -63.804    -397.052
  O      185.234     -64.755    -394.889
  O      183.586     -64.349    -396.868
  H      185.992     -65.310    -394.638
  H      187.082     -62.939    -398.636
  H      185.354     -63.133    -398.815
  H      186.408     -64.522    -398.941

 6  7  8  9  10  11  12  13  14  15  16  27  31  32  33  34  35 0
 6-311+G(2d,p)
 ****
 36  37 0
 6-311+G(2d,p)
 ****
 1  2  3  4  5  17  18  19  20  21  22  23  24  25 0
 3-21G
 ****
 26  28  29  30  38  39  40  41  42  43  44  45 0
 3-21G
 ****


