%nproc=1
%NoSave
%Mem=1900MB
#P OB98/GEN NMR

erre ene a

0 1
  C      540.858    -241.719    -106.179
  O      539.548    -241.501    -105.686
  P      538.307    -241.462    -106.696
  C      536.508    -242.422    -105.080
  O      536.982    -241.307    -105.805
  C      535.124    -242.134    -104.472
  O      535.299    -241.165    -103.410
  C      534.117    -241.513    -105.435
  O      532.806    -241.685    -104.896
  C      534.497    -240.044    -105.383
  O      533.447    -239.198    -105.833
  C      534.916    -239.860    -103.903
  N      536.036    -238.911    -103.767
  C      535.758    -237.576    -104.020
  O      534.625    -237.155    -104.269
  N      536.836    -236.734    -104.066
  C      538.140    -237.118    -103.927
  O      539.099    -236.433    -104.273
  C      538.353    -238.490    -103.428
  C      537.307    -239.320    -103.400
  O      538.235    -242.972    -107.231
  O      538.437    -240.488    -107.813
  H      533.705    -238.275    -105.602
  H      538.701    -243.045    -108.087
  H      536.654    -235.793    -104.391
  H      539.355    -238.790    -103.164
  H      537.439    -240.349    -103.086
  H      534.080    -239.488    -103.292
  H      535.364    -239.880    -106.038
  H      534.161    -241.910    -106.454
  H      534.725    -243.052    -104.032
  H      537.223    -242.675    -104.295
  H      536.435    -243.297    -105.731
  P      531.755    -242.553    -105.742
  C      530.564    -243.215    -103.566
  O      530.425    -242.642    -104.849
  O      532.262    -243.850    -106.278
  O      531.324    -241.552    -106.919
  H      530.924    -242.057    -107.649
  H      529.810    -242.777    -102.904
  H      531.555    -243.029    -103.145
  H      530.397    -244.294    -103.631
  H      541.551    -241.712    -105.364
  H      541.113    -240.943    -106.870
  H      540.899    -242.666    -106.675

 3  4  5  6  7  8  9  10  11  12  13  23  28  29  30  31  32 0
 6-311+G(2d,p)
 ****
 33  34 0
 6-311+G(2d,p)
 ****
 1  2  14  15  16  17  18  19  20  21  22  24  25  26  27 0
 3-21G
 ****
 35  36  37  38  39  40  41  42  43  44  45 0
 3-21G
 ****


