%nproc=1
%NoSave
%Mem=1900MB
#P OB98/GEN NMR

erre ene a

0 1
  C     -481.960      49.348     377.007
  O     -481.744      49.898     378.294
  H     -482.912      49.726     376.619
  H     -482.009      48.258     377.063
  H     -481.158      49.653     376.326
  P     -480.403      49.439     379.046
  C     -479.009      51.475     378.241
  O     -479.187      50.068     378.206
  C     -477.653      51.826     378.852
  O     -476.574      51.276     378.062
  C     -477.386      53.321     378.970
  O     -477.991      53.860     380.138
  C     -475.863      53.346     379.036
  O     -475.381      53.043     380.362
  C     -475.485      52.238     378.052
  N     -472.884      55.517     375.230
  C     -472.837      55.273     376.583
  N     -471.999      56.061     377.302
  N     -473.537      54.351     377.186
  C     -474.345      53.674     376.342
  C     -474.478      53.806     374.977
  C     -473.667      54.817     374.330
  O     -473.621      55.036     373.117
  N     -475.388      52.914     374.474
  C     -475.836      52.268     375.535
  N     -475.249      52.702     376.689
  O     -480.302      47.873     378.721
  O     -480.372      49.697     380.513
  H     -475.793      53.656     380.997
  H     -479.862      47.419     379.465
  H     -472.305      56.234     374.821
  H     -476.584      51.488     375.515
  H     -474.577      51.696     378.363
  H     -475.467      54.327     378.774
  H     -471.707      56.969     376.972
  H     -477.724      53.852     378.072
  H     -471.970      55.900     378.304
  H     -477.606      51.350     379.843
  H     -479.804      51.921     378.855
  H     -479.077      51.873     377.230
  P     -478.429      55.400     380.104
  C     -481.023      55.222     380.291
  O     -479.893      55.448     379.445
  O     -477.500      56.037     378.963
  O     -478.284      56.125     381.401
  H     -477.485      57.005     379.037
  H     -481.920      55.285     379.712
  H     -481.044      55.962     381.063
  H     -480.950      54.249     380.731

 6  7  8  9  10  11  12  13  14  15  26  29  33  34 0
 6-311+G(2d,p)
 ****
 36  38  39  40  41 0
 6-311+G(2d,p)
 ****
 1  2  3  4  5  16  17  18  19  20  21  22  23  24  25 0
 3-21G
 ****
 27  28  30  31  32  35  37  42  43  44  45  46  47 0
 3-21G
 ****
 48  49 0
 3-21G
 ****


