%nproc=1
%NoSave
%Mem=1900MB
#P OB98/GEN NMR

erre ene a

0 1
  C     -295.470     -46.095     130.886
  O     -294.822     -46.626     129.750
  H     -295.460     -46.824     131.701
  H     -294.935     -45.199     131.210
  H     -296.501     -45.822     130.642
  P     -295.460     -47.951     129.103
  C     -295.230     -49.380     131.264
  O     -296.106     -48.764     130.327
  C     -295.697     -50.804     131.541
  O     -297.082     -50.805     131.950
  C     -295.625     -51.736     130.335
  O     -294.317     -52.244     130.129
  C     -296.579     -52.833     130.774
  O     -295.930     -53.692     131.731
  C     -297.694     -52.026     131.450
  N     -301.880     -53.769     129.079
  C     -300.989     -54.372     129.895
  N     -299.898     -53.838     130.481
  C     -299.766     -52.542     130.155
  C     -300.591     -51.796     129.330
  C     -301.703     -52.461     128.781
  N     -302.604     -51.855     127.936
  N     -300.114     -50.505     129.199
  C     -299.040     -50.470     129.963
  N     -298.783     -51.679     130.555
  O     -294.182     -48.835     128.716
  O     -296.376     -47.732     127.945
  H     -296.564     -54.399     131.949
  H     -294.423     -49.495     128.041
  H     -301.176     -55.424     130.101
  H     -298.419     -49.596     130.120
  H     -298.132     -52.550     132.306
  H     -296.909     -53.469     129.948
  H     -296.019     -51.256     129.430
  H     -295.102     -51.202     132.375
  H     -295.241     -48.808     132.196
  H     -303.252     -52.460     127.457
  H     -302.395     -50.927     127.595
  H     -294.215     -49.385     130.857
  P     -293.870     -52.527     128.613
  C     -294.799     -54.898     128.069
  O     -294.996     -53.487     127.995
  O     -292.605     -53.495     128.783
  O     -293.546     -51.307     127.816
  H     -292.004     -53.417     128.017
  H     -295.630     -55.398     127.617
  H     -294.719     -55.194     129.094
  H     -293.900     -55.160     127.551

 6  7  8  9  10  11  12  13  14  15  25  28  32  33  34  35 0
 6-311+G(2d,p)
 ****
 36  39  40 0
 6-311+G(2d,p)
 ****
 1  2  3  4  5  16  17  18  19  20  21  22  23  24 0
 3-21G
 ****
 26  27  29  30  31  37  38  41  42  43  44  45  46  47 0
 3-21G
 ****
 48 0
 3-21G
 ****


