%nproc=1
%NoSave
%Mem=1900MB
#P OB98/GEN NMR

erre ene a

0 1
  C      129.991      37.183      70.824
  O      128.862      37.141      69.975
  H      129.779      37.865      71.653
  H      130.869      37.550      70.286
  H      130.193      36.190      71.232
  P      128.965      36.337      68.591
  C      128.980      38.258      66.874
  O      129.755      37.291      67.569
  C      128.962      37.963      65.373
  O      130.316      38.098      64.859
  C      128.461      36.554      65.028
  O      127.693      36.631      63.825
  C      129.750      35.794      64.794
  O      129.542      34.660      63.973
  C      130.664      36.869      64.197
  N      132.073      36.526      64.380
  C      132.743      36.017      63.262
  O      132.150      35.890      62.188
  N      134.043      35.602      63.397
  C      134.615      35.637      64.561
  N      135.892      35.175      64.633
  C      133.937      36.141      65.775
  C      132.685      36.569      65.615
  O      127.688      35.774      68.060
  O      130.029      35.182      68.905
  H      128.962      34.905      63.220
  H      129.570      34.382      69.226
  H      134.454      36.146      66.723
  H      132.105      36.944      66.452
  H      130.469      36.994      63.125
  H      130.152      35.443      65.754
  H      127.860      36.107      65.828
  H      128.354      38.727      64.874
  H      136.304      34.817      63.780
  H      129.432      39.243      67.051
  H      136.422      35.115      65.491
  H      127.957      38.265      67.267
  P      126.171      36.125      63.794
  C      126.645      33.975      62.487
  O      126.149      34.519      63.705
  O      125.304      36.812      62.783
  O      125.640      36.421      65.279
  H      124.680      36.606      65.246
  H      126.589      32.907      62.525
  H      127.663      34.275      62.351
  H      126.055      34.334      61.670

 6  7  8  9  10  11  12  13  14  15  16  26  30  31  32  33  35 0
 6-311+G(2d,p)
 ****
 37  38 0
 6-311+G(2d,p)
 ****
 1  2  3  4  5  17  18  19  20  21  22  23  24  25 0
 3-21G
 ****
 27  28  29  34  36  39  40  41  42  43  44  45  46 0
 3-21G
 ****


