%nproc=1
%NoSave
%Mem=1900MB
#P OB98/GEN NMR

erre ene a

0 1
  C       79.485     681.190    -186.037
  O       78.261     681.802    -186.390
  H       79.708     680.362    -186.725
  H       80.286     681.931    -186.117
  H       79.448     680.817    -185.006
  P       76.946     680.879    -186.306
  C       76.691     681.788    -183.891
  O       76.654     680.651    -184.747
  C       75.289     682.355    -183.700
  O       74.480     681.430    -182.940
  C       75.234     683.675    -182.926
  O       75.549     684.777    -183.765
  C       73.769     683.687    -182.507
  O       72.951     684.108    -183.616
  C       73.506     682.211    -182.195
  N       71.068     682.098    -177.691
  C       70.642     682.386    -178.945
  N       71.347     682.378    -180.097
  C       72.612     681.996    -179.871
  C       73.183     681.637    -178.655
  C       72.346     681.704    -177.522
  N       72.815     681.461    -176.246
  N       74.520     681.312    -178.818
  C       74.749     681.483    -180.105
  N       73.626     681.895    -180.782
  O       77.493     679.442    -186.803
  O       75.791     681.338    -187.135
  H       72.017     683.993    -183.344
  H       77.285     679.335    -187.748
  H       69.590     682.687    -179.023
  H       75.712     681.348    -180.589
  H       72.502     681.883    -182.525
  H       73.565     684.383    -181.676
  H       75.859     683.645    -182.035
  H       74.835     682.459    -184.689
  H       77.338     682.560    -184.333
  H       72.309     681.975    -175.518
  H       73.830     681.441    -176.146
  H       77.120     681.485    -182.925
  P       75.903     686.169    -183.054
  C       78.400     686.143    -183.722
  O       77.462     686.105    -182.660
  O       75.140     686.057    -181.639
  O       75.467     687.396    -183.803
  H       74.534     686.806    -181.529
  H       79.392     686.094    -183.324
  H       78.281     687.054    -184.271
  H       78.235     685.310    -184.373

 6  7  8  9  10  11  12  13  14  15  25  28  32  33  34  35 0
 6-311+G(2d,p)
 ****
 36  39  40 0
 6-311+G(2d,p)
 ****
 1  2  3  4  5  16  17  18  19  20  21  22  23  24 0
 3-21G
 ****
 26  27  29  30  31  37  38  41  42  43  44  45  46  47  48 0
 3-21G
 ****


