%nproc=1
%NoSave
%Mem=1900MB
#P OB98/GEN NMR

erre ene a

0 1
  C     -141.843     -85.741    -250.086
  O     -142.664     -86.312    -251.085
  P     -143.047     -85.513    -252.421
  C     -140.657     -85.885    -253.300
  O     -141.660     -84.929    -252.988
  C     -139.310     -85.211    -253.576
  O     -138.272     -86.220    -253.681
  C     -139.268     -84.368    -254.865
  O     -138.388     -83.270    -254.594
  C     -138.640     -85.326    -255.858
  O     -138.096     -84.659    -256.990
  C     -137.623     -86.049    -254.961
  N     -137.188     -87.315    -255.536
  C     -135.812     -87.551    -255.569
  O     -135.020     -86.679    -255.195
  N     -135.354     -88.742    -256.073
  C     -136.199     -89.581    -256.597
  N     -135.690     -90.748    -257.076
  C     -137.646     -89.313    -256.699
  C     -138.069     -88.181    -256.141
  O     -144.137     -84.504    -252.267
  O     -143.391     -86.668    -253.471
  H     -137.606     -85.320    -257.530
  H     -144.291     -87.036    -253.295
  H     -138.298     -90.018    -257.190
  H     -139.111     -87.903    -256.166
  H     -136.739     -85.418    -254.797
  H     -139.399     -86.031    -256.217
  H     -140.248     -84.012    -255.181
  H     -139.065     -84.583    -252.712
  H     -134.691     -90.895    -256.970
  H     -140.968     -86.419    -254.199
  H     -136.267     -91.499    -257.426
  H     -140.568     -86.610    -252.486
  P     -138.713     -81.796    -255.132
  C     -140.304     -81.234    -253.209
  O     -140.177     -81.416    -254.608
  O     -138.498     -81.596    -256.600
  O     -137.756     -80.839    -254.272
  H     -137.700     -79.965    -254.702
  H     -141.246     -80.715    -253.005
  H     -139.476     -80.643    -252.812
  H     -140.322     -82.209    -252.712
  H     -141.715     -86.441    -249.287
  H     -142.304     -84.851    -249.711
  H     -140.888     -85.499    -250.504

 3  4  5  6  7  8  9  10  11  12  13  23  27  28  29  30  32 0
 6-311+G(2d,p)
 ****
 34  35 0
 6-311+G(2d,p)
 ****
 1  2  14  15  16  17  18  19  20  21  22  24  25  26 0
 3-21G
 ****
 31  33  36  37  38  39  40  41  42  43  44  45  46 0
 3-21G
 ****


