%nproc=1
%NoSave
%Mem=1900MB
#P OB98/GEN NMR

erre ene a

0 1
  C      118.689     127.789     -38.544
  O      117.440     128.413     -38.743
  H      118.582     126.721     -38.749
  H      119.002     127.918     -37.504
  H      119.452     128.200     -39.210
  P      117.395     129.999     -38.946
  C      117.010     130.375     -36.423
  O      117.814     130.682     -37.555
  C      117.557     131.013     -35.145
  O      116.746     130.633     -34.012
  C      118.977     130.545     -34.824
  O      120.011     131.248     -35.489
  C      119.045     130.769     -33.317
  O      119.418     132.124     -33.016
  C      117.608     130.495     -32.868
  N      115.599     127.685     -29.105
  C      115.567     129.054     -29.279
  N      114.976     129.767     -28.295
  N      116.086     129.661     -30.313
  C      116.728     128.829     -31.167
  C      116.838     127.459     -31.093
  C      116.212     126.790     -29.970
  O      116.218     125.580     -29.766
  N      117.562     126.954     -32.146
  C      117.950     128.022     -32.812
  N      117.447     129.182     -32.271
  O      115.826     130.323     -39.031
  O      118.116     130.511     -40.155
  H      119.596     132.188     -32.060
  H      115.683     131.136     -39.546
  H      115.159     127.269     -28.304
  H      118.571     128.011     -33.702
  H      117.273     131.230     -32.125
  H      119.792     130.124     -32.846
  H      114.668     129.355     -27.428
  H      119.078     129.473     -35.017
  H      115.165     130.770     -28.253
  H      117.500     132.104     -35.233
  H      117.007     129.288     -36.325
  H      115.977     130.688     -36.595
  P      121.287     130.459     -36.046
  C      122.574     131.065     -33.867
  O      122.182     130.061     -34.778
  O      122.131     131.612     -36.764
  O      120.975     129.338     -36.977
  H      121.944     131.622     -37.721
  H      123.162     130.629     -33.087
  H      121.704     131.523     -33.445
  H      123.153     131.805     -34.379

 6  7  8  9  10  11  12  13  14  15  26  29  33  34 0
 6-311+G(2d,p)
 ****
 36  38  39  40  41 0
 6-311+G(2d,p)
 ****
 1  2  3  4  5  16  17  18  19  20  21  22  23  24  25 0
 3-21G
 ****
 27  28  30  31  32  35  37  42  43  44  45  46  47 0
 3-21G
 ****
 48  49 0
 3-21G
 ****


