%nproc=1
%NoSave
%Mem=1900MB
#P OB98/GEN NMR

erre ene a

0 1
  C      -89.418     -10.505    -123.525
  O      -88.818     -10.600    -122.233
  P      -87.230     -10.411    -122.096
  C      -87.059     -10.412    -119.532
  O      -86.743     -11.104    -120.732
  C      -88.478     -10.720    -119.036
  O      -88.742     -12.147    -119.074
  C      -88.762     -10.243    -117.603
  O      -90.129      -9.817    -117.567
  C      -88.573     -11.512    -116.796
  O      -89.175     -11.436    -115.515
  C      -89.175     -12.541    -117.757
  N      -88.772     -13.902    -117.442
  C      -89.775     -14.795    -117.062
  O      -90.929     -14.393    -116.907
  N      -89.437     -16.108    -116.843
  C      -88.188     -16.457    -116.850
  N      -87.895     -17.770    -116.648
  C      -87.086     -15.500    -117.069
  C      -87.449     -14.260    -117.380
  O      -86.729      -9.022    -122.310
  O      -86.657     -11.406    -123.218
  H      -88.914     -12.223    -114.992
  H      -85.847     -11.015    -123.600
  H      -86.058     -15.822    -116.985
  H      -86.716     -13.488    -117.566
  H      -90.272     -12.490    -117.745
  H      -87.501     -11.701    -116.655
  H      -88.122      -9.415    -117.285
  H      -89.186     -10.242    -119.725
  H      -88.660     -18.410    -116.474
  H      -86.965      -9.336    -119.705
  H      -86.950     -18.130    -116.690
  H      -86.313     -10.662    -118.769
  P      -90.479      -8.376    -116.955
  C      -92.595      -8.234    -118.457
  O      -92.046      -8.118    -117.162
  O      -89.833      -7.392    -118.050
  O      -89.913      -8.079    -115.605
  H      -89.629      -6.538    -117.624
  H      -93.683      -8.308    -118.371
  H      -92.228      -9.130    -118.967
  H      -92.347      -7.347    -119.046
  H      -90.474     -10.654    -123.440
  H      -89.003     -11.253    -124.167
  H      -89.227      -9.536    -123.937

 3  4  5  6  7  8  9  10  11  12  13  23  27  28  29  30  32 0
 6-311+G(2d,p)
 ****
 34  35 0
 6-311+G(2d,p)
 ****
 1  2  14  15  16  17  18  19  20  21  22  24  25  26 0
 3-21G
 ****
 31  33  36  37  38  39  40  41  42  43  44  45  46 0
 3-21G
 ****


