%nproc=1
%NoSave
%Mem=1900MB
#P OB98/GEN NMR

erre ene a

0 1
  C       17.267    -209.713    -125.722
  O       17.336    -210.647    -126.781
  H       18.123    -209.867    -125.061
  H       16.347    -209.860    -125.149
  H       17.301    -208.693    -126.116
  P       16.124    -210.620    -127.833
  C       13.679    -211.481    -127.800
  O       14.825    -211.127    -127.037
  C       12.462    -211.639    -126.892
  O       12.386    -210.552    -125.945
  C       11.129    -211.677    -127.629
  O       10.854    -212.980    -128.113
  C       10.171    -211.243    -126.528
  O        9.863    -212.344    -125.647
  C       10.991    -210.172    -125.794
  N        7.693    -206.361    -126.115
  C        7.532    -207.641    -125.622
  N        6.300    -207.967    -125.175
  N        8.487    -208.531    -125.584
  C        9.651    -208.088    -126.121
  C        9.936    -206.848    -126.640
  C        8.883    -205.855    -126.624
  O        8.987    -204.682    -126.972
  N       11.237    -206.777    -127.069
  C       11.723    -207.981    -126.840
  N       10.797    -208.816    -126.271
  O       16.454    -211.844    -128.814
  O       15.965    -209.349    -128.595
  H        9.131    -212.085    -125.060
  H       16.207    -211.591    -129.724
  H        6.931    -205.709    -126.091
  H       12.735    -208.294    -127.058
  H       10.774    -210.159    -124.719
  H        9.219    -210.900    -126.936
  H        5.477    -207.446    -125.440
  H       11.106    -210.940    -128.440
  H        6.164    -208.928    -124.883
  H       12.605    -212.560    -126.309
  H       13.876    -212.426    -128.313
  H       13.486    -210.701    -128.542
  P        9.560    -213.187    -129.034
  C        7.038    -212.573    -128.919
  O        8.317    -212.474    -128.308
  O        9.246    -214.749    -128.863
  O        9.751    -212.835    -130.469
  H        9.513    -215.229    -129.670
  H        6.317    -212.053    -128.324
  H        6.759    -213.603    -128.998
  H        7.075    -212.138    -129.896

 6  7  8  9  10  11  12  13  14  15  26  29  33  34 0
 6-311+G(2d,p)
 ****
 36  38  39  40  41 0
 6-311+G(2d,p)
 ****
 1  2  3  4  5  16  17  18  19  20  21  22  23  24  25 0
 3-21G
 ****
 27  28  30  31  32  35  37  42  43  44  45  46  47 0
 3-21G
 ****
 48  49 0
 3-21G
 ****


