%nproc=1
%NoSave
%Mem=1900MB
#P OB98/GEN NMR

erre ene a

0 1
  C      434.993    -968.069     -85.489
  O      435.915    -967.362     -84.674
  H      434.520    -968.847     -84.880
  H      435.519    -968.546     -86.318
  H      434.223    -967.397     -85.866
  P      436.682    -966.099     -85.292
  C      438.586    -964.542     -84.522
  O      437.893    -965.761     -84.290
  C      439.212    -964.018     -83.233
  O      438.155    -963.751     -82.274
  C      440.193    -965.005     -82.589
  O      441.282    -964.250     -82.023
  C      439.383    -965.631     -81.472
  O      440.200    -966.101     -80.395
  C      438.455    -964.488     -81.067
  N      436.604    -967.189     -77.228
  C      437.908    -966.830     -77.505
  N      438.878    -967.253     -76.657
  N      438.248    -966.087     -78.544
  C      437.182    -965.710     -79.299
  C      435.852    -966.018     -79.112
  C      435.500    -966.844     -77.979
  O      434.372    -967.208     -77.678
  N      435.080    -965.469     -80.115
  C      435.945    -964.847     -80.898
  N      437.237    -964.966     -80.444
  O      435.818    -964.919     -85.629
  O      437.423    -966.682     -86.584
  H      439.597    -966.438     -79.699
  H      436.927    -966.465     -87.396
  H      436.421    -967.764     -76.409
  H      435.690    -964.293     -81.796
  H      438.922    -963.793     -80.350
  H      438.814    -966.486     -81.862
  H      438.684    -967.807     -75.834
  H      440.583    -965.746     -83.300
  H      439.831    -966.970     -76.841
  H      439.695    -963.058     -83.443
  H      437.873    -963.806     -84.910
  H      439.363    -964.701     -85.281
  P      442.785    -964.667     -82.420
  C      445.077    -963.485     -82.427
  O      443.772    -963.535     -81.840
  O      442.997    -965.040     -83.843
  O      443.077    -965.898     -81.435
  H      443.711    -966.512     -81.888
  H      445.644    -962.702     -81.969
  H      444.989    -963.295     -83.476
  H      445.573    -964.421     -82.274

 6  7  8  9  10  11  12  13  14  15  26  29  33  34 0
 6-311+G(2d,p)
 ****
 36  38  39  40  41 0
 6-311+G(2d,p)
 ****
 1  2  3  4  5  16  17  18  19  20  21  22  23  24  25 0
 3-21G
 ****
 27  28  30  31  32  35  37  42  43  44  45  46  47 0
 3-21G
 ****
 48  49 0
 3-21G
 ****


