%nproc=1
%NoSave
%Mem=1900MB
#P OB98/GEN NMR

erre ene a

0 1
  C     -426.099     452.101     -97.460
  O     -425.325     453.119     -98.056
  H     -425.427     451.405     -96.953
  H     -426.655     451.558     -98.231
  H     -426.792     452.514     -96.725
  P     -426.057     454.438     -98.585
  C     -425.195     454.871    -100.982
  O     -425.047     455.167     -99.601
  C     -423.836     454.923    -101.699
  O     -423.148     453.662    -101.489
  C     -424.004     455.101    -103.207
  O     -422.889     455.767    -103.799
  C     -424.047     453.668    -103.713
  O     -423.684     453.547    -105.089
  C     -423.073     452.983    -102.755
  N     -422.019     448.212    -104.220
  C     -421.656     449.409    -104.808
  N     -420.909     449.318    -105.936
  N     -422.005     450.579    -104.348
  C     -422.812     450.513    -103.261
  C     -423.259     449.396    -102.602
  C     -422.834     448.102    -103.097
  O     -423.144     447.011    -102.628
  N     -424.066     449.723    -101.538
  C     -424.113     451.042    -101.560
  N     -423.341     451.574    -102.571
  O     -426.035     455.416     -97.317
  O     -427.449     454.243     -99.102
  H     -424.292     454.113    -105.598
  H     -426.733     456.090     -97.394
  H     -421.700     447.342    -104.596
  H     -424.666     451.658    -100.864
  H     -422.042     453.074    -103.124
  H     -425.068     453.302    -103.613
  H     -420.786     448.441    -106.424
  H     -424.918     455.637    -103.470
  H     -420.901     450.146    -106.539
  H     -423.206     455.704    -101.248
  H     -425.876     455.614    -101.401
  H     -425.660     453.891    -101.110
  P     -423.021     456.282    -105.310
  C     -420.613     455.676    -106.244
  O     -421.577     456.651    -105.887
  O     -423.745     457.698    -105.169
  O     -423.772     455.357    -106.216
  H     -424.626     457.671    -105.591
  H     -419.730     456.162    -106.603
  H     -421.010     455.046    -107.012
  H     -420.371     455.084    -105.387

 6  7  8  9  10  11  12  13  14  15  26  29  33  34 0
 6-311+G(2d,p)
 ****
 36  38  39  40  41 0
 6-311+G(2d,p)
 ****
 1  2  3  4  5  16  17  18  19  20  21  22  23  24  25 0
 3-21G
 ****
 27  28  30  31  32  35  37  42  43  44  45  46  47 0
 3-21G
 ****
 48  49 0
 3-21G
 ****


