%nproc=1
%NoSave
%Mem=1900MB
#P OB98/GEN NMR

erre ene a

0 1
  C      233.248     308.791    -231.651
  O      231.954     309.170    -231.216
  P      231.564     309.130    -229.665
  C      231.649     307.310    -227.777
  O      231.688     307.627    -229.150
  C      230.532     306.287    -227.535
  O      230.620     305.213    -228.499
  C      230.626     305.673    -226.140
  O      229.789     306.372    -225.231
  C      230.194     304.241    -226.377
  O      228.759     304.145    -226.417
  C      230.790     303.963    -227.777
  N      232.210     303.574    -227.866
  C      232.646     302.414    -227.235
  O      231.906     301.653    -226.620
  N      233.993     302.162    -227.318
  C      234.906     302.919    -227.995
  O      236.120     302.822    -227.861
  C      234.345     303.967    -228.853
  C      233.050     304.256    -228.735
  O      229.983     309.385    -229.685
  O      232.278     310.114    -228.799
  H      228.449     304.762    -227.102
  H      229.783     310.319    -229.488
  H      234.340     301.397    -226.746
  H      235.017     304.502    -229.514
  H      232.622     305.056    -229.337
  H      230.212     303.197    -228.306
  H      230.519     303.592    -225.565
  H      231.669     305.676    -225.793
  H      229.561     306.781    -227.672
  H      231.473     308.215    -227.187
  H      232.614     306.898    -227.458
  P      229.770     305.949    -223.688
  C      229.469     303.705    -222.488
  O      229.233     304.438    -223.673
  O      229.066     306.891    -222.768
  O      231.326     305.816    -223.323
  H      231.638     306.632    -222.886
  H      228.904     302.771    -222.534
  H      229.145     304.273    -221.613
  H      230.534     303.469    -222.407
  H      233.309     308.887    -232.715
  H      233.434     307.775    -231.373
  H      233.978     309.426    -231.194

 3  4  5  6  7  8  9  10  11  12  13  23  28  29  30  31  32 0
 6-311+G(2d,p)
 ****
 33  34 0
 6-311+G(2d,p)
 ****
 1  2  14  15  16  17  18  19  20  21  22  24  25  26  27 0
 3-21G
 ****
 35  36  37  38  39  40  41  42  43  44  45 0
 3-21G
 ****


