%nproc=1
%NoSave
%Mem=1900MB
#P OB98/GEN NMR

erre ene a

0 1
  C     -179.675     162.539    -400.447
  O     -179.978     162.469    -401.836
  P     -180.678     161.127    -402.378
  C     -178.721     159.717    -403.343
  O     -179.570     159.973    -402.230
  C     -178.725     158.230    -403.687
  O     -178.271     157.455    -402.557
  C     -180.091     157.666    -404.048
  O     -180.438     157.927    -405.402
  C     -179.855     156.180    -403.837
  O     -179.155     155.632    -404.969
  C     -178.952     156.172    -402.598
  N     -180.273     152.744    -399.042
  C     -179.601     152.620    -400.208
  N     -179.296     153.579    -401.104
  C     -179.803     154.765    -400.720
  C     -180.543     155.034    -399.582
  C     -180.770     153.959    -398.707
  N     -181.437     154.094    -397.510
  N     -180.889     156.367    -399.534
  C     -180.360     156.897    -400.620
  N     -179.682     155.969    -401.362
  O     -180.747     161.372    -403.962
  O     -182.017     160.834    -401.794
  H     -179.133     154.659    -404.846
  H     -181.454     160.824    -404.351
  H     -179.250     151.618    -400.439
  H     -180.433     157.940    -400.898
  H     -178.175     155.400    -402.655
  H     -180.786     155.613    -403.732
  H     -180.864     158.020    -403.351
  H     -178.012     158.072    -404.509
  H     -177.703     160.023    -403.093
  H     -181.395     153.326    -396.860
  H     -181.625     155.033    -397.173
  H     -179.065     160.307    -404.199
  P     -181.830     158.687    -405.655
  C     -183.736     157.085    -404.904
  O     -182.834     158.118    -404.547
  O     -182.351     158.036    -407.026
  O     -181.708     160.171    -405.742
  H     -182.943     158.650    -407.490
  H     -184.109     156.614    -403.994
  H     -183.244     156.324    -405.518
  H     -184.581     157.512    -405.452
  H     -179.216     163.481    -400.229
  H     -179.004     161.747    -400.188
  H     -180.577     162.443    -399.880

 3  4  5  6  7  8  9  10  11  12  22  25  29  30  31  32 0
 6-311+G(2d,p)
 ****
 33  36  37 0
 6-311+G(2d,p)
 ****
 1  2  13  14  15  16  17  18  19  20  21  23  24  26 0
 3-21G
 ****
 27  28  34  35  38  39  40  41  42  43  44  45  46  47  48 0
 3-21G
 ****


