%nproc=1
%NoSave
%Mem=1900MB
#P OB98/GEN NMR

erre ene a

0 1
  C      987.750    -765.225    -837.904
  O      987.438    -764.238    -838.869
  H      986.827    -765.695    -837.581
  H      988.224    -764.746    -837.044
  H      988.412    -765.987    -838.314
  P      988.623    -763.652    -839.767
  C      989.523    -761.552    -838.544
  O      989.679    -762.946    -838.773
  C      990.792    -760.955    -837.930
  O      991.795    -760.757    -838.960
  C      990.478    -759.565    -837.325
  O      991.355    -759.247    -836.237
  C      990.794    -758.624    -838.489
  O      991.064    -757.286    -838.071
  C      991.973    -759.326    -839.132
  N      993.173    -755.836    -842.669
  C      993.028    -755.678    -841.311
  N      993.185    -754.428    -840.818
  N      992.718    -756.679    -840.488
  C      992.506    -757.848    -841.127
  C      992.593    -758.117    -842.475
  C      992.979    -757.039    -843.358
  O      993.100    -757.112    -844.578
  N      992.296    -759.442    -842.752
  C      992.004    -759.948    -841.573
  N      992.140    -759.024    -840.548
  O      987.959    -762.381    -840.505
  O      989.234    -764.596    -840.769
  H      991.126    -756.743    -838.857
  H      988.422    -762.183    -841.325
  H      993.410    -755.053    -843.249
  H      991.716    -760.994    -841.406
  H      992.910    -759.061    -838.631
  H      989.906    -758.584    -839.136
  H      993.248    -753.623    -841.423
  H      989.463    -759.482    -836.996
  H      992.793    -754.238    -839.894
  H      991.228    -761.643    -837.201
  H      988.674    -761.428    -837.853
  H      989.268    -761.041    -839.476
  P      990.835    -759.599    -834.758
  C      989.891    -757.268    -833.939
  O      989.627    -758.577    -834.422
  O      992.037    -759.099    -833.827
  O      990.508    -761.036    -834.548
  H      992.530    -759.858    -833.479
  H      988.966    -756.754    -833.779
  H      990.477    -756.734    -834.658
  H      990.429    -757.330    -833.016

 6  7  8  9  10  11  12  13  14  15  26  29  33  34 0
 6-311+G(2d,p)
 ****
 36  38  39  40  41 0
 6-311+G(2d,p)
 ****
 1  2  3  4  5  16  17  18  19  20  21  22  23  24  25 0
 3-21G
 ****
 27  28  30  31  32  35  37  42  43  44  45  46  47 0
 3-21G
 ****
 48  49 0
 3-21G
 ****


