%nproc=1
%NoSave
%Mem=1900MB
#P OB98/GEN NMR

erre ene a

0 1
  C      445.940      72.574     735.677
  O      447.292      72.857     735.383
  P      448.457      72.399     736.386
  C      448.525      74.782     737.385
  O      449.275      73.727     736.764
  C      449.474      75.872     737.858
  O      450.345      75.384     738.923
  C      450.434      76.386     736.789
  O      449.868      77.083     735.694
  C      451.432      77.148     737.642
  O      450.987      78.445     738.000
  C      451.522      76.236     738.896
  N      452.760      75.435     738.929
  C      453.929      76.148     739.127
  O      453.971      77.366     739.282
  N      455.096      75.402     739.130
  C      455.186      74.070     738.885
  O      456.247      73.465     738.851
  C      453.896      73.375     738.673
  C      452.759      74.067     738.697
  O      449.303      71.254     735.906
  O      447.671      72.094     737.754
  H      451.686      78.858     738.545
  H      447.179      72.851     738.127
  H      455.956      75.904     739.258
  H      453.944      72.308     738.497
  H      451.809      73.587     738.531
  H      451.496      76.844     739.822
  H      452.396      77.271     737.106
  H      450.948      75.526     736.358
  H      448.867      76.683     738.300
  H      447.993      74.372     738.229
  H      447.790      75.174     736.672
  P      450.196      76.732     734.177
  C      452.148      78.458     734.071
  O      450.921      78.000     733.509
  O      449.095      76.086     733.380
  O      451.422      75.699     734.342
  H      451.385      75.040     733.599
  H      452.475      79.353     733.540
  H      452.909      77.679     733.984
  H      451.992      78.702     735.119
  H      445.317      72.956     734.895
  H      445.672      73.036     736.604
  H      445.806      71.515     735.754

 3  4  5  6  7  8  9  10  11  12  13  23  28  29  30  31  32 0
 6-311+G(2d,p)
 ****
 33  34 0
 6-311+G(2d,p)
 ****
 1  2  14  15  16  17  18  19  20  21  22  24  25  26  27 0
 3-21G
 ****
 35  36  37  38  39  40  41  42  43  44  45 0
 3-21G
 ****


