%nproc=1
%NoSave
%Mem=1900MB
#P OB98/GEN NMR

erre ene a

0 1
  C      178.813    -901.851     935.073
  O      178.021    -903.009     934.988
  H      179.770    -902.039     934.576
  H      179.004    -901.601     936.117
  H      178.324    -901.008     934.574
  P      176.503    -902.914     935.511
  C      175.586    -902.860     933.076
  O      175.655    -902.195     934.337
  C      175.199    -901.864     931.985
  O      176.301    -900.932     931.774
  C      174.889    -902.529     930.625
  O      173.794    -901.832     930.023
  C      176.154    -902.296     929.814
  O      175.919    -902.322     928.406
  C      176.640    -900.956     930.375
  N      178.070    -900.786     930.168
  C      178.484    -900.362     928.885
  O      177.652    -900.170     928.009
  N      179.826    -900.222     928.632
  C      180.692    -900.568     929.541
  N      182.010    -900.453     929.211
  C      180.308    -901.085     930.869
  C      179.005    -901.156     931.120
  O      176.568    -901.784     936.638
  O      175.916    -904.191     936.010
  H      176.753    -902.036     927.951
  H      175.920    -901.945     937.346
  H      181.065    -901.389     931.582
  H      178.629    -901.528     932.068
  H      176.115    -900.130     929.895
  H      176.880    -903.096     930.042
  H      174.634    -903.595     930.724
  H      174.337    -901.271     932.330
  H      182.239    -900.111     928.284
  H      174.816    -903.644     933.121
  H      182.775    -900.732     929.823
  H      176.553    -903.327     932.850
  P      172.329    -902.450     930.223
  C      171.674    -900.713     932.046
  O      171.826    -902.080     931.698
  O      172.608    -904.025     930.292
  O      171.370    -902.106     929.116
  H      172.293    -904.467     929.488
  H      171.334    -900.638     933.058
  H      170.959    -900.256     931.394
  H      172.615    -900.213     931.948

 6  7  8  9  10  11  12  13  14  15  16  26  30  31  32  33  35 0
 6-311+G(2d,p)
 ****
 37  38 0
 6-311+G(2d,p)
 ****
 1  2  3  4  5  17  18  19  20  21  22  23  24  25 0
 3-21G
 ****
 27  28  29  34  36  39  40  41  42  43  44  45  46 0
 3-21G
 ****


