%nproc=1
%NoSave
%Mem=1900MB
#P OB98/GEN NMR

erre ene a

0 1
  C     -165.683     768.164     509.797
  O     -164.718     768.323     508.783
  P     -164.956     767.756     507.304
  C     -167.080     769.196     507.078
  O     -166.536     767.879     507.008
  C     -168.287     769.322     506.134
  O     -167.865     768.917     504.791
  C     -169.471     768.427     506.548
  O     -170.721     769.117     506.667
  C     -169.435     767.315     505.514
  O     -170.659     766.622     505.366
  C     -168.906     768.052     504.282
  N     -168.422     767.147     503.249
  C     -169.332     766.228     502.728
  O     -170.510     766.141     503.074
  N     -168.833     765.346     501.811
  C     -167.525     765.211     501.459
  O     -167.135     764.326     500.708
  C     -166.602     766.182     502.064
  C     -167.088     767.104     502.900
  O     -164.397     766.399     507.042
  O     -164.350     768.905     506.371
  H     -170.563     765.988     504.634
  H     -164.770     769.777     506.472
  H     -169.481     764.673     501.430
  H     -165.554     766.094     501.813
  H     -166.430     767.838     503.362
  H     -169.670     768.691     503.847
  H     -168.688     766.578     505.842
  H     -169.310     767.998     507.552
  H     -168.575     770.379     506.106
  H     -166.322     769.914     506.784
  H     -167.375     769.424     508.113
  P     -171.905     768.714     507.667
  C     -171.107     769.930     509.819
  O     -171.324     768.705     509.153
  O     -172.668     767.483     507.280
  O     -172.857     769.995     507.654
  H     -173.772     769.723     507.832
  H     -170.290     769.810     510.535
  H     -172.015     770.209     510.361
  H     -170.837     770.728     509.115
  H     -165.328     768.613     510.701
  H     -165.859     767.121     509.961
  H     -166.595     768.637     509.499

 3  4  5  6  7  8  9  10  11  12  13  23  28  29  30  31  32 0
 6-311+G(2d,p)
 ****
 33  34 0
 6-311+G(2d,p)
 ****
 1  2  14  15  16  17  18  19  20  21  22  24  25  26  27 0
 3-21G
 ****
 35  36  37  38  39  40  41  42  43  44  45 0
 3-21G
 ****


