%nproc=1
%NoSave
%Mem=1900MB
#P OB98/GEN NMR

erre ene a

0 1
  C     -142.671     457.298     -49.847
  O     -142.490     458.263     -48.827
  H     -142.253     457.657     -50.790
  H     -142.153     456.380     -49.555
  H     -143.736     457.079     -49.968
  P     -143.087     459.723     -49.118
  C     -140.723     460.782     -49.077
  O     -141.914     460.565     -49.820
  C     -139.887     461.875     -49.733
  O     -139.501     461.474     -51.063
  C     -140.603     463.210     -49.906
  O     -140.636     463.956     -48.697
  C     -139.718     463.871     -50.950
  O     -138.550     464.430     -50.310
  C     -139.307     462.690     -51.838
  N     -140.923     465.145     -56.043
  C     -140.155     465.552     -55.010
  N     -139.776     464.846     -53.924
  C     -140.259     463.590     -53.969
  C     -141.051     463.044     -54.965
  C     -141.391     463.878     -56.045
  N     -142.190     463.464     -57.086
  N     -141.339     461.722     -54.686
  C     -140.736     461.480     -53.540
  N     -140.069     462.581     -53.068
  O     -143.194     460.381     -47.659
  O     -144.405     459.745     -49.825
  H     -137.991     464.793     -51.022
  H     -143.988     460.947     -47.625
  H     -139.795     466.572     -55.063
  H     -140.743     460.526     -53.025
  H     -138.245     462.726     -52.101
  H     -140.216     464.681     -51.484
  H     -141.612     463.067     -50.322
  H     -138.971     462.004     -49.141
  H     -140.144     459.859     -49.043
  H     -142.239     464.034     -57.917
  H     -142.533     462.510     -57.079
  H     -140.992     461.073     -48.053
  P     -141.590     465.252     -48.654
  C     -139.497     466.623     -47.962
  O     -140.616     466.512     -48.839
  O     -142.009     465.341     -47.107
  O     -142.776     465.198     -49.549
  H     -142.860     465.808     -47.023
  H     -138.942     467.506     -48.202
  H     -138.868     465.765     -48.076
  H     -139.841     466.682     -46.951

 6  7  8  9  10  11  12  13  14  15  25  28  32  33  34  35 0
 6-311+G(2d,p)
 ****
 36  39  40 0
 6-311+G(2d,p)
 ****
 1  2  3  4  5  16  17  18  19  20  21  22  23  24 0
 3-21G
 ****
 26  27  29  30  31  37  38  41  42  43  44  45  46  47  48 0
 3-21G
 ****


