%nproc=1
%NoSave
%Mem=1900MB
#P OB98/GEN NMR

erre ene a

0 1
  C     -331.608    -894.690    -116.997
  O     -330.661    -895.570    -117.636
  P     -331.100    -896.400    -118.936
  C     -329.251    -895.120    -120.273
  O     -330.585    -895.610    -120.235
  C     -328.692    -895.160    -121.698
  O     -328.625    -896.530    -122.159
  C     -329.558    -894.440    -122.725
  O     -329.376    -893.030    -122.659
  C     -329.050    -895.050    -124.028
  O     -327.826    -894.400    -124.463
  C     -328.763    -896.510    -123.604
  N     -329.792    -897.440    -124.082
  C     -329.626    -897.940    -125.365
  O     -328.691    -897.620    -126.098
  N     -330.579    -898.850    -125.768
  C     -331.688    -899.210    -125.075
  O     -332.514    -900.000    -125.506
  C     -331.862    -898.560    -123.756
  C     -330.933    -897.730    -123.329
  O     -332.680    -896.110    -118.990
  O     -330.822    -897.870    -118.910
  H     -328.012    -893.460    -124.535
  H     -333.126    -896.860    -119.447
  H     -330.447    -899.250    -126.691
  H     -332.746    -898.800    -123.182
  H     -331.038    -897.230    -122.366
  H     -327.792    -896.840    -123.998
  H     -329.777    -894.950    -124.837
  H     -330.605    -894.690    -122.589
  H     -327.675    -894.770    -121.680
  H     -328.612    -895.720    -119.607
  H     -329.231    -894.080    -119.892
  P     -330.598    -892.120    -123.144
  C     -331.121    -891.250    -120.740
  O     -331.559    -891.950    -121.874
  O     -331.362    -893.140    -124.126
  O     -330.139    -890.850    -123.798
  H     -331.295    -894.070    -123.818
  H     -330.468    -890.420    -120.992
  H     -330.595    -891.940    -120.061
  H     -332.000    -890.860    -120.223
  H     -331.147    -894.222    -116.152
  H     -332.457    -895.255    -116.672
  H     -331.923    -893.940    -117.692

 3  4  5  6  7  8  9  10  11  12  13  23  28  29  30  31  32 0
 6-311+G(2d,p)
 ****
 33  34 0
 6-311+G(2d,p)
 ****
 1  2  14  15  16  17  18  19  20  21  22  24  25  26 0
 3-21G
 ****
 27  35  36  37  38  39  40  41  42  43  44  45 0
 3-21G
 ****


