%nproc=1
%NoSave
%Mem=1900MB
#P OB98/GEN NMR

erre ene a

0 1
  C       68.350    -257.734    -139.512
  O       68.212    -257.070    -138.250
  P       68.060    -255.469    -138.301
  C       70.225    -255.361    -136.870
  O       69.493    -254.822    -137.965
  C       70.251    -254.401    -135.676
  O       70.806    -253.131    -136.098
  C       68.881    -254.107    -135.054
  O       69.035    -253.989    -133.634
  C       68.541    -252.730    -135.590
  O       67.595    -252.048    -134.771
  C       69.929    -252.096    -135.623
  N       68.839    -247.178    -136.076
  C       68.718    -248.013    -134.982
  N       68.215    -247.460    -133.855
  N       69.062    -249.272    -134.989
  C       69.582    -249.680    -136.173
  C       69.761    -248.949    -137.325
  C       69.337    -247.563    -137.312
  O       69.369    -246.788    -138.267
  N       70.318    -249.710    -138.323
  C       70.464    -250.902    -137.779
  N       70.026    -250.936    -136.478
  O       67.172    -255.145    -137.011
  O       67.412    -254.966    -139.549
  H       67.984    -251.981    -133.878
  H       66.370    -254.655    -137.273
  H       68.539    -246.219    -136.021
  H       70.857    -251.775    -138.279
  H       70.259    -251.807    -134.617
  H       68.116    -252.824    -136.597
  H       67.990    -246.481    -133.761
  H       68.112    -254.851    -135.285
  H       68.161    -248.044    -133.028
  H       70.928    -254.816    -134.919
  H       71.249    -255.567    -137.186
  H       69.767    -256.311    -136.578
  P       68.434    -255.187    -132.747
  C       66.254    -254.098    -131.834
  O       66.843    -254.983    -132.765
  O       68.852    -254.784    -131.255
  O       68.929    -256.541    -133.132
  H       68.930    -255.584    -130.699
  H       66.997    -253.486    -131.316
  H       65.698    -254.680    -131.095
  H       65.561    -253.440    -132.363
  H       68.443    -258.788    -139.352
  H       69.223    -257.371    -140.012
  H       67.487    -257.539    -140.114

 3  4  5  6  7  8  9  10  11  12  23  26  30  31  33  0
 6-311+G(2d,p)
 ****
 35  36  37  38 0
 6-311+G(2d,p)
 ****
 1  2  13  14  15  16  17  18  19  20  21  22  24  25  27  28  29 0
 3-21G
 ****
 32  34  39  40  41  42  43  44  45  46  47  48  49 0
 3-21G
 ****


