%nproc=1
%NoSave
%Mem=1900MB
#P OB98/GEN NMR

erre ene a

0 1
  C     -592.660    -722.301    -183.676
  O     -593.548    -721.185    -183.596
  P     -595.137    -721.344    -183.715
  C     -595.356    -720.903    -186.245
  O     -595.495    -721.855    -185.195
  C     -594.691    -721.515    -187.483
  O     -595.558    -722.480    -188.108
  C     -594.307    -720.502    -188.565
  O     -593.116    -719.817    -188.213
  C     -594.208    -721.413    -189.779
  O     -592.927    -722.075    -189.811
  C     -595.328    -722.427    -189.528
  N     -598.198    -723.443    -193.642
  C     -597.042    -723.964    -193.203
  N     -596.325    -723.638    -192.093
  C     -596.958    -722.676    -191.402
  C     -598.158    -722.044    -191.723
  C     -598.785    -722.470    -192.913
  N     -599.959    -721.920    -193.372
  N     -598.474    -721.094    -190.781
  C     -597.507    -721.155    -189.894
  N     -596.563    -722.099    -190.230
  O     -595.913    -720.141    -183.274
  O     -595.485    -722.608    -182.786
  H     -592.858    -722.614    -189.007
  H     -596.399    -722.527    -182.443
  H     -596.607    -724.757    -193.816
  H     -597.441    -720.545    -189.003
  H     -595.042    -723.436    -189.840
  H     -594.310    -720.858    -190.720
  H     -595.132    -719.796    -188.706
  H     -593.800    -722.058    -187.137
  H     -594.749    -720.065    -185.867
  H     -600.338    -722.260    -194.238
  H     -600.387    -721.153    -192.854
  H     -596.349    -720.522    -186.508
  P     -593.188    -718.337    -187.617
  C     -592.182    -717.272    -189.715
  O     -593.301    -717.325    -188.847
  O     -592.143    -718.004    -186.603
  O     -594.652    -718.271    -186.970
  H     -594.656    -717.649    -186.216
  H     -591.402    -716.656    -189.265
  H     -592.493    -716.841    -190.674
  H     -591.785    -718.287    -189.910
  H     -591.651    -721.962    -183.571
  H     -592.778    -722.783    -184.624
  H     -592.886    -722.994    -182.893

 3  4  5  6  7  8  9  10  11  12  22  25  29  30  31  32 0
 6-311+G(2d,p)
 ****
 33  36  37 0
 6-311+G(2d,p)
 ****
 1  2  13  14  15  16  17  18  19  20  21  23  24  26 0
 3-21G
 ****
 27  28  34  35  38  39  40  41  42  43  44  45  46  47  48 0
 3-21G
 ****


