%nproc=1
%NoSave
%Mem=1900MB
#P OB98/GEN NMR

erre ene a

0 1
  C     1276.007     490.570    1552.415
  O     1274.965     490.255    1553.336
  P     1275.320     490.306    1554.898
  C     1276.709     488.129    1554.488
  O     1275.761     488.824    1555.317
  C     1277.099     486.816    1555.147
  O     1277.728     487.067    1556.431
  C     1275.936     485.868    1555.454
  O     1275.540     485.125    1554.304
  C     1276.565     484.953    1556.476
  O     1277.380     483.957    1555.843
  C     1277.440     485.917    1557.288
  N     1277.209     485.321    1562.308
  C     1278.112     484.802    1561.385
  N     1279.073     483.990    1561.880
  N     1278.114     485.086    1560.120
  C     1277.092     485.945    1559.769
  C     1276.131     486.517    1560.575
  C     1276.161     486.170    1561.978
  O     1275.341     486.548    1562.826
  N     1275.287     487.312    1559.874
  C     1275.722     487.250    1558.625
  N     1276.806     486.391    1558.501
  O     1273.885     490.478    1555.612
  O     1276.260     491.397    1555.285
  H     1277.958     483.574    1556.534
  H     1273.992     490.792    1556.502
  H     1277.260     485.066    1563.282
  H     1275.303     487.746    1557.782
  H     1278.410     485.475    1557.569
  H     1275.815     484.402    1557.082
  H     1279.096     483.689    1562.842
  H     1275.102     486.411    1555.910
  H     1279.706     483.537    1561.241
  H     1277.833     486.314    1554.490
  H     1277.574     488.757    1554.343
  H     1276.243     487.953    1553.508
  P     1274.018     485.335    1553.807
  C     1273.235     483.862    1555.804
  O     1273.197     484.098    1554.407
  O     1274.113     484.993    1552.228
  O     1273.456     486.704    1554.058
  H     1273.404     485.466    1551.734
  H     1272.435     483.188    1556.066
  H     1273.087     484.803    1556.366
  H     1274.206     483.417    1556.079
  H     1275.633     490.497    1551.415
  H     1276.817     489.883    1552.544
  H     1276.353     491.567    1552.595

 3  4  5  6  7  8  9  10  11  12  23  26  30  31 0
 6-311+G(2d,p)
 ****
 33  35  36  37  38 0
 6-311+G(2d,p)
 ****
 1  2  13  14  15  16  17  18  19  20  21  22  24  25 0
 3-21G
 ****
 27  28  29  32  34  39  40  41  42  43  44  45  46  47  48  49 0
 3-21G
 ****


