%nproc=1
%NoSave
%Mem=1900MB
#P OB98/GEN NMR

erre ene a

0 1
  C        7.840      35.019       2.183
  O        8.835      34.498       3.049
  P        9.188      32.935       2.933
  C        7.299      32.167       4.555
  O        8.691      32.249       4.296
  C        6.982      32.686       5.959
  O        7.601      31.801       6.929
  C        7.490      34.103       6.250
  O        6.558      34.702       7.158
  C        8.806      33.855       6.962
  O        9.226      34.968       7.744
  C        8.464      32.604       7.763
  N       11.691      31.466      11.486
  C       10.644      32.370      11.468
  N       10.389      33.014      12.626
  N        9.913      32.616      10.412
  C       10.277      31.883       9.333
  C       11.315      30.990       9.215
  C       12.090      30.699      10.399
  O       12.969      29.845      10.484
  N       11.426      30.513       7.937
  C       10.406      31.055       7.303
  N        9.654      31.857       8.118
  O       10.781      32.920       3.061
  O        8.704      32.251       1.694
  H        9.204      35.762       7.172
  H       11.205      32.933       2.181
  H       12.205      31.305      12.335
  H       10.161      30.901       6.265
  H        7.926      32.834       8.692
  H        9.591      33.648       6.224
  H       10.890      32.850      13.485
  H        7.601      34.720       5.355
  H        9.606      33.656      12.649
  H        5.898      32.629       6.110
  H        6.990      31.118       4.493
  H        6.750      32.734       3.797
  P        5.749      35.992       6.659
  C        6.653      37.152       8.789
  O        5.558      36.962       7.917
  O        4.273      35.414       6.414
  O        6.283      36.625       5.415
  H        3.849      35.899       5.682
  H        6.516      38.095       9.325
  H        7.601      37.191       8.245
  H        6.686      36.336       9.516
  H        7.713      36.064       2.373
  H        6.915      34.510       2.356
  H        8.141      34.876       1.166

 3  4  5  6  7  8  9  10  11  12  23  26  30  31 0
 6-311+G(2d,p)
 ****
 33  35  36  37  38 0
 6-311+G(2d,p)
 ****
 1  2  13  14  15  16  17  18  19  20  21  22  24  25 0
 3-21G
 ****
 27  28  29  32  34  39  40  41  42  43  44  45  46  47  48  49 0
 3-21G
 ****


