%nproc=1
%NoSave
%Mem=1900MB
#P OB98/GEN NMR

erre ene a

0 1
  C     -120.735    -632.786     271.634
  O     -120.390    -632.806     270.261
  P     -120.643    -631.532     269.322
  C     -119.795    -632.828     267.273
  O     -120.886    -632.134     267.852
  C     -120.303    -633.966     266.383
  O     -121.183    -634.800     267.172
  C     -121.140    -633.538     265.171
  O     -120.366    -633.176     264.026
  C     -121.893    -634.826     264.880
  O     -121.033    -635.752     264.183
  C     -122.198    -635.345     266.284
  N     -127.117    -636.715     266.616
  C     -126.031    -637.354     266.122
  N     -124.757    -636.905     266.044
  C     -124.656    -635.697     266.609
  C     -125.662    -634.929     267.157
  C     -126.955    -635.483     267.154
  N     -128.053    -634.845     267.686
  N     -125.164    -633.722     267.617
  C     -123.874    -633.768     267.355
  N     -123.514    -634.949     266.751
  O     -119.596    -630.468     269.424
  O     -122.090    -631.016     269.739
  H     -120.890    -635.387     263.287
  H     -122.229    -630.101     269.426
  H     -126.211    -638.342     265.707
  H     -123.162    -632.987     267.580
  H     -122.131    -636.440     266.355
  H     -122.771    -634.661     264.243
  H     -121.851    -632.749     265.436
  H     -119.448    -634.575     266.072
  H     -119.184    -633.254     268.080
  H     -128.904    -635.368     267.748
  H     -127.898    -634.001     268.223
  H     -119.164    -632.131     266.701
  P     -120.818    -631.854     263.233
  C     -119.367    -632.621     261.198
  O     -120.619    -632.200     261.676
  O     -120.169    -630.597     263.701
  O     -122.418    -631.862     263.414
  H     -122.877    -632.579     262.958
  H     -119.478    -632.964     260.158
  H     -118.974    -633.444     261.788
  H     -118.660    -631.789     261.209
  H     -120.487    -633.727     272.078
  H     -121.786    -632.610     271.735
  H     -120.194    -632.006     272.126

 3  4  5  6  7  8  9  10  11  12  22  25  29  30  31  32 0
 6-311+G(2d,p)
 ****
 33  36  37 0
 6-311+G(2d,p)
 ****
 1  2  13  14  15  16  17  18  19  20  21  23  24  26 0
 3-21G
 ****
 27  28  34  35  38  39  40  41  42  43  44  45  46  47  48 0
 3-21G
 ****


