%nproc=1
%NoSave
%Mem=1900MB
#P OB98/GEN NMR

erre ene a

0 1
  C      632.354     245.594     211.305
  O      633.327     244.797     211.954
  P      634.323     245.520     212.979
  C      636.085     247.442     212.626
  O      635.324     246.382     212.067
  C      636.631     248.353     211.519
  O      635.567     249.181     211.012
  C      637.723     249.313     211.968
  O      638.983     248.668     212.099
  C      637.662     250.362     210.852
  O      638.373     249.893     209.690
  C      636.151     250.426     210.565
  N      635.496     251.577     211.191
  C      635.415     252.728     210.418
  O      635.867     252.815     209.277
  N      634.818     253.809     211.023
  C      634.355     253.861     212.311
  O      633.872     254.868     212.812
  C      634.496     252.622     213.081
  C      635.049     251.554     212.493
  O      635.197     244.272     213.475
  O      633.623     246.274     214.056
  H      635.231     243.566     212.800
  H      638.265     250.595     209.005
  H      634.730     254.656     210.471
  H      634.156     252.622     214.106
  H      635.167     250.628     213.055
  H      635.980     250.476     209.480
  H      638.115     251.311     211.152
  H      637.445     249.782     212.920
  H      636.988     247.714     210.698
  H      636.932     247.015     213.195
  H      635.468     248.012     213.322
  P      640.051     249.370     213.078
  C      641.659     251.404     212.777
  O      640.863     250.407     212.173
  O      641.083     248.165     213.326
  O      639.445     249.930     214.325
  H      641.280     247.655     212.510
  H      642.395     251.763     212.041
  H      642.200     251.016     213.651
  H      641.029     252.239     213.085
  H      631.766     244.980     210.656
  H      632.841     246.355     210.732
  H      631.720     246.049     212.037

 3  4  5  6  7  8  9  10  11  12  13  24  28  29  30  31  32 0
 6-311+G(2d,p)
 ****
 33  34 0
 6-311+G(2d,p)
 ****
 1  2  14  15  16  17  18  19  20  21  22  23  25  26  27 0
 3-21G
 ****
 35  36  37  38  39  40  41  42  43  44  45 0
 3-21G
 ****


