%nproc=1
%NoSave
%Mem=1900MB
#P OB98/GEN NMR

erre ene a

0 1
  C       20.155      -7.518       7.096
  O       19.881      -7.970       8.406
  H       19.207      -7.304       6.594
  H       20.678      -8.296       6.535
  H       20.755      -6.605       7.111
  P       21.092      -8.099       9.449
  C       20.386     -10.546       9.855
  O       21.451      -9.660       9.544
  C       20.901     -11.980      10.006
  O       21.214     -12.502       8.678
  C       22.181     -12.102      10.858
  O       22.131     -13.371      11.524
  C       23.250     -12.091       9.782
  O       24.495     -12.509      10.276
  C       22.575     -12.977       8.732
  N       23.212     -12.922       7.423
  C       22.814     -13.860       6.477
  O       21.946     -14.709       6.676
  N       23.462     -13.801       5.272
  C       24.447     -12.922       4.933
  O       24.979     -12.899       3.829
  C       24.846     -11.973       5.985
  C       24.219     -12.015       7.163
  O       20.894      -7.415      10.760
  O       22.342      -7.493       8.652
  H       22.480      -6.565       8.916
  H       24.485     -13.473      10.462
  H       23.185     -14.475       4.573
  H       25.640     -11.276       5.756
  H       24.488     -11.333       7.963
  H       22.538     -14.019       9.070
  H       23.390     -11.076       9.398
  H       22.278     -11.303      11.598
  H       20.096     -12.606      10.410
  H       19.653     -10.499       9.044
  H       19.908     -10.222      10.787
  P       21.597     -13.557      13.026
  C       23.861     -13.274      14.228
  O       22.554     -12.753      14.035
  O       21.394     -14.985      13.417
  O       20.213     -12.755      13.090
  H       19.593     -13.230      13.676
  H       24.394     -12.653      14.917
  H       24.379     -13.294      13.292
  H       23.795     -14.267      14.621

 6  7  8  9  10  11  12  13  14  15  16  27  31  32  33  34  35 0
 6-311+G(2d,p)
 ****
 36  37 0
 6-311+G(2d,p)
 ****
 1  2  3  4  5  17  18  19  20  21  22  23  24  25 0
 3-21G
 ****
 26  28  29  30  38  39  40  41  42  43  44  45 0
 3-21G
 ****


