%nproc=1
%NoSave
%Mem=1900MB
#P OB98/GEN NMR

erre ene a

0 1
  C     -207.140     -62.487     211.382
  O     -207.004     -63.813     211.851
  H     -208.195     -62.203     211.429
  H     -206.801     -62.411     210.345
  H     -206.563     -61.805     212.014
  P     -205.542     -64.465     211.771
  C     -206.019     -65.501     209.433
  O     -205.196     -64.643     210.214
  C     -205.723     -65.284     207.950
  O     -205.772     -63.869     207.645
  C     -204.337     -65.742     207.520
  O     -204.256     -67.144     207.331
  C     -204.167     -64.972     206.222
  O     -204.770     -65.657     205.116
  C     -204.893     -63.648     206.522
  N     -203.953     -62.556     206.769
  C     -203.329     -62.029     205.638
  O     -203.544     -62.437     204.497
  N     -202.418     -61.038     205.866
  C     -202.037     -60.567     207.091
  O     -201.169     -59.713     207.230
  C     -202.714     -61.172     208.251
  C     -203.624     -62.128     208.041
  O     -205.779     -65.962     212.281
  O     -204.494     -63.760     212.569
  H     -205.420     -66.066     213.181
  H     -204.505     -66.594     205.203
  H     -201.959     -60.641     205.063
  H     -202.433     -60.826     209.236
  H     -204.128     -62.599     208.876
  H     -205.532     -63.362     205.677
  H     -203.116     -64.836     205.983
  H     -203.581     -65.396     208.241
  H     -206.496     -65.791     207.361
  H     -207.073     -65.271     209.621
  H     -205.828     -66.540     209.722
  P     -203.057     -67.930     208.054
  C     -201.580     -67.976     205.870
  O     -201.734     -67.564     207.224
  O     -203.398     -69.438     207.636
  O     -202.992     -67.679     209.525
  H     -203.890     -69.477     206.795
  H     -200.636     -67.635     205.499
  H     -202.368     -67.559     205.278
  H     -201.620     -69.044     205.815

 6  7  8  9  10  11  12  13  14  15  16  27  31  32  33  34  35 0
 6-311+G(2d,p)
 ****
 36  37 0
 6-311+G(2d,p)
 ****
 1  2  3  4  5  17  18  19  20  21  22  23  24  25 0
 3-21G
 ****
 26  28  29  30  38  39  40  41  42  43  44  45 0
 3-21G
 ****


