%nproc=1
%NoSave
%Mem=1900MB
#P OB98/GEN NMR

erre ene a

0 1
  C     -142.510     -22.454      33.660
  O     -142.317     -23.365      32.594
  H     -143.546     -22.105      33.641
  H     -141.849     -21.590      33.555
  H     -142.326     -22.948      34.619
  P     -140.852     -23.963      32.357
  C     -140.715     -22.732      30.084
  O     -140.110     -22.957      31.353
  C     -140.134     -23.680      29.035
  O     -140.937     -23.656      27.839
  C     -138.719     -23.323      28.594
  O     -137.779     -23.689      29.586
  C     -138.628     -24.105      27.293
  O     -138.383     -25.499      27.542
  C     -140.051     -23.896      26.716
  N     -140.135     -22.807      25.748
  C     -139.965     -23.167      24.403
  O     -139.744     -24.339      24.097
  N     -140.034     -22.178      23.452
  C     -140.290     -20.956      23.797
  N     -140.349     -20.029      22.805
  C     -140.512     -20.544      25.196
  C     -140.410     -21.509      26.110
  O     -140.783     -25.404      31.952
  O     -140.100     -23.706      33.747
  H     -139.232     -25.873      27.850
  H     -140.166     -24.491      34.322
  H     -140.734     -19.512      25.440
  H     -140.555     -21.291      27.165
  H     -140.407     -24.814      26.226
  H     -137.822     -23.747      26.648
  H     -138.650     -22.256      28.360
  H     -140.173     -24.700      29.441
  H     -140.208     -20.362      21.856
  H     -140.512     -21.694      29.808
  H     -140.700     -19.090      22.935
  H     -141.803     -22.864      30.147
  P     -136.834     -22.599      30.285
  C     -134.809     -23.081      28.772
  O     -135.794     -22.131      29.153
  O     -136.210     -23.031      31.570
  O     -137.780     -21.317      30.434
  H     -138.402     -21.431      31.196
  H     -134.179     -22.658      28.017
  H     -135.288     -23.957      28.387
  H     -134.218     -23.343      29.624

 6  7  8  9  10  11  12  13  14  15  16  26  30  31  32  33  35 0
 6-311+G(2d,p)
 ****
 37  38 0
 6-311+G(2d,p)
 ****
 1  2  3  4  5  17  18  19  20  21  22  23  24  25 0
 3-21G
 ****
 27  28  29  34  36  39  40  41  42  43  44  45  46 0
 3-21G
 ****


