%nproc=1
%NoSave
%Mem=1900MB
#P OB98/GEN NMR

erre ene a

0 1
  C     -824.688     792.851       7.303
  O     -824.308     792.335       8.575
  P     -824.969     790.952       9.064
  C     -824.180     788.432       9.297
  O     -823.893     789.776       8.953
  C     -822.880     787.736       9.734
  O     -821.874     787.863       8.712
  C     -822.288     788.314      11.020
  O     -822.846     787.717      12.174
  C     -820.808     788.026      10.838
  O     -820.530     786.639      11.131
  C     -820.632     788.304       9.327
  N     -820.363     789.701       8.906
  C     -819.181     790.003       8.225
  O     -818.309     789.182       7.950
  N     -819.026     791.317       7.855
  C     -819.973     792.291       7.933
  O     -819.797     793.439       7.533
  C     -821.248     791.883       8.525
  C     -821.385     790.635       8.981
  O     -826.034     790.609       7.929
  O     -825.598     791.017      10.425
  H     -820.653     786.513      12.084
  H     -826.938     790.635       8.291
  H     -818.142     791.569       7.434
  H     -822.050     792.622       8.561
  H     -822.331     790.330       9.419
  H     -819.819     787.690       8.922
  H     -820.210     788.611      11.529
  H     -822.422     789.399      11.041
  H     -823.096     786.663       9.876
  H     -824.624     787.902       8.451
  H     -824.917     788.407      10.109
  P     -824.234     788.263      12.765
  C     -826.615     787.305      12.864
  O     -825.368     787.256      12.206
  O     -824.510     789.717      12.571
  O     -824.164     787.863      14.323
  H     -823.847     788.624      14.861
  H     -827.337     786.707      12.288
  H     -826.978     788.338      12.909
  H     -826.530     786.891      13.864
  H     -824.168     793.768       7.120
  H     -825.743     793.030       7.292
  H     -824.439     792.142       6.541

 3  4  5  6  7  8  9  10  11  12  13  23  28  29  30  31  32 0
 6-311+G(2d,p)
 ****
 33  34 0
 6-311+G(2d,p)
 ****
 1  2  14  15  16  17  18  19  20  21  22  24  25  26  27 0
 3-21G
 ****
 35  36  37  38  39  40  41  42  43  44  45 0
 3-21G
 ****


