%nproc=1
%NoSave
%Mem=1900MB
#P OB98/GEN NMR

erre ene a

0 1
  C      381.350    1106.362     479.880
  O      382.410    1105.489     480.223
  H      380.447    1105.758     479.695
  H      381.603    1106.903     478.966
  H      381.150    1107.064     480.691
  P      383.814    1106.185     480.569
  C      384.902    1106.462     478.223
  O      384.204    1107.070     479.287
  C      385.479    1107.537     477.284
  O      386.403    1108.373     478.039
  C      386.270    1106.965     476.084
  O      386.159    1107.875     474.974
  C      387.694    1107.012     476.621
  O      388.620    1106.865     475.564
  C      387.676    1108.337     477.342
  N      391.796    1111.136     478.446
  C      390.846    1111.261     477.475
  N      389.772    1110.472     477.248
  C      389.721    1109.499     478.174
  C      390.604    1109.243     479.197
  C      391.694    1110.116     479.309
  N      392.679    1109.973     480.261
  N      390.215    1108.110     479.916
  C      389.110    1107.703     479.335
  N      388.772    1108.506     478.265
  O      384.855    1104.967     480.506
  O      383.881    1106.905     481.875
  H      388.602    1105.948     475.214
  H      384.963    1104.573     481.393
  H      390.964    1112.099     476.794
  H      388.528    1106.834     479.616
  H      387.677    1109.192     476.660
  H      387.885    1106.178     477.324
  H      385.928    1105.964     475.779
  H      384.657    1108.188     476.939
  H      384.211    1105.822     477.664
  H      385.721    1105.857     478.616
  H      393.444    1110.631     480.252
  H      392.647    1109.201     480.912
  P      385.092    1107.563     473.831
  C      386.509    1106.055     472.242
  O      385.410    1106.152     473.130
  O      385.515    1108.608     472.687
  O      383.661    1107.762     474.199
  H      384.728    1109.043     472.328
  H      386.578    1105.055     471.867
  H      387.411    1106.304     472.762
  H      386.369    1106.733     471.426

 6  7  8  9  10  11  12  13  14  15  25  28  32  33  34  35 0
 6-311+G(2d,p)
 ****
 36  37  40 0
 6-311+G(2d,p)
 ****
 1  2  3  4  5  16  17  18  19  20  21  22  23  24 0
 3-21G
 ****
 26  27  29  30  31  38  39 41  42  43  44  45  46  47  48 0
 3-21G
 ****


