%nproc=1
%NoSave
%Mem=1900MB
#P OB98/GEN NMR

erre ene a

0 1
  C      293.725    -833.102     703.509
  O      292.659    -833.597     704.298
  H      294.278    -833.956     703.099
  H      294.401    -832.506     704.122
  H      293.344    -832.501     702.677
  P      291.586    -832.559     704.881
  C      290.751    -834.589     706.248
  O      291.023    -833.191     706.246
  C      290.579    -835.089     707.680
  O      291.889    -835.274     708.284
  C      289.836    -834.124     708.589
  O      288.454    -834.147     708.340
  C      290.262    -834.640     709.959
  O      289.458    -835.772     710.342
  C      291.726    -835.072     709.705
  N      292.678    -834.088     710.217
  C      292.615    -833.816     711.569
  O      291.831    -834.369     712.353
  N      293.475    -832.836     712.031
  C      294.236    -832.039     711.241
  O      294.789    -831.020     711.658
  C      294.310    -832.405     709.831
  C      293.528    -833.390     709.375
  O      290.544    -832.095     703.924
  O      292.490    -831.340     705.401
  H      292.442    -830.616     704.745
  H      289.774    -836.033     711.234
  H      293.406    -832.612     713.018
  H      294.970    -831.833     709.180
  H      293.536    -833.657     708.322
  H      291.920    -836.042     710.190
  H      290.152    -833.881     710.727
  H      290.236    -833.108     708.466
  H      290.083    -836.076     707.645
  H      291.587    -835.109     705.766
  H      289.839    -834.771     705.660
  P      287.572    -832.817     708.583
  C      285.547    -834.315     709.166
  O      286.359    -833.200     709.558
  O      287.172    -832.070     707.349
  O      288.504    -831.903     709.527
  H      288.547    -831.013     709.137
  H      284.777    -834.469     709.893
  H      286.155    -835.193     709.099
  H      285.103    -834.115     708.213

 6  7  8  9  10  11  12  13  14  15  16  27  31  32  33  34  35 0
 6-311+G(2d,p)
 ****
 36  37 0
 6-311+G(2d,p)
 ****
 1  2  3  4  5  17  18  19  20  21  22  23  24  25 0
 3-21G
 ****
 26  28  29  30  38  39  40  41  42  43  44  45 0
 3-21G
 ****


