%nproc=1
%NoSave
%Mem=1900MB
#P OB98/GEN NMR

erre ene a

0 1
  C     -211.585    1041.129    -149.123
  O     -210.280    1040.658    -149.391
  H     -212.140    1040.347    -148.603
  H     -212.113    1041.364    -150.050
  H     -211.554    1042.019    -148.475
  P     -209.222    1041.658    -150.066
  C     -208.040    1042.220    -147.856
  O     -207.904    1041.631    -149.139
  C     -207.182    1041.499    -146.837
  O     -207.752    1040.203    -146.575
  C     -205.724    1041.274    -147.303
  O     -204.862    1041.434    -146.182
  C     -205.719    1039.820    -147.743
  O     -204.428    1039.240    -147.660
  C     -206.737    1039.195    -146.809
  N     -208.459    1034.559    -145.715
  C     -208.009    1035.554    -144.890
  N     -207.965    1035.280    -143.553
  N     -207.608    1036.742    -145.316
  C     -207.708    1036.885    -146.674
  C     -208.129    1035.967    -147.589
  C     -208.555    1034.670    -147.104
  O     -208.958    1033.728    -147.810
  N     -208.057    1036.491    -148.864
  C     -207.575    1037.720    -148.687
  N     -207.332    1037.992    -147.370
  O     -209.732    1043.025    -150.382
  O     -208.749    1040.880    -151.388
  H     -204.544    1038.266    -147.701
  H     -209.200    1041.227    -152.176
  H     -208.743    1033.663    -145.349
  H     -207.403    1038.418    -149.488
  H     -206.312    1038.893    -145.823
  H     -206.058    1039.762    -148.791
  H     -208.252    1034.400    -143.159
  H     -205.426    1041.964    -148.102
  H     -207.651    1035.998    -142.934
  H     -207.206    1042.056    -145.885
  H     -209.089    1042.167    -147.561
  H     -207.753    1043.281    -147.903
  P     -203.621    1042.429    -146.272
  C     -204.552    1044.078    -144.497
  O     -203.466    1043.196    -144.876
  O     -203.617    1043.331    -147.484
  O     -202.347    1041.458    -146.275
  H     -201.638    1041.859    -146.782
  H     -204.332    1044.529    -143.552
  H     -205.459    1043.515    -144.421
  H     -204.667    1044.841    -145.238

 6  7  8  9  10  11  12  13  14  15  26  29  33  34 0
 6-311+G(2d,p)
 ****
 36  38  39  40  41 0
 6-311+G(2d,p)
 ****
 1  2  3  4  5  16  17  18  19  20  21  22  23  24  25 0
 3-21G
 ****
 27  28  30  31  32  35  37  42  43  44  45  46  47 0
 3-21G
 ****
 48  49 0
 3-21G
 ****


