%nproc=1
%NoSave
%Mem=1900MB
#P OB98/GEN NMR

erre ene a

0 1
  C     -246.604     485.080    -163.206
  O     -245.393     485.766    -163.478
  P     -244.303     485.034    -164.398
  C     -242.220     483.615    -163.811
  O     -243.544     483.983    -163.447
  C     -241.417     483.188    -162.588
  O     -241.172     484.364    -161.756
  C     -242.116     482.142    -161.702
  O     -241.166     481.143    -161.306
  C     -242.508     482.927    -160.460
  O     -242.633     482.088    -159.317
  C     -241.359     483.930    -160.396
  N     -241.640     485.446    -155.578
  C     -241.128     484.276    -156.109
  N     -240.681     483.356    -155.223
  N     -241.068     484.027    -157.391
  C     -241.516     485.044    -158.164
  C     -242.042     486.249    -157.756
  C     -242.158     486.494    -156.334
  O     -242.687     487.465    -155.799
  N     -242.377     487.039    -158.831
  C     -242.066     486.305    -159.884
  N     -241.588     485.069    -159.528
  O     -243.211     486.175    -164.645
  O     -244.822     484.486    -165.684
  H     -241.743     481.731    -159.133
  H     -243.082     486.304    -165.608
  H     -241.681     485.580    -154.583
  H     -242.199     486.611    -160.915
  H     -240.440     483.435    -160.059
  H     -243.472     483.422    -160.642
  H     -240.667     483.497    -154.225
  H     -242.979     481.655    -162.178
  H     -240.284     482.508    -155.590
  H     -240.438     482.826    -162.918
  H     -241.729     484.473    -164.283
  H     -242.263     482.791    -164.532
  P     -241.750     479.671    -161.058
  C     -242.853     478.549    -158.979
  O     -242.561     479.743    -159.672
  O     -240.448     478.812    -160.693
  O     -242.495     479.110    -162.227
  H     -240.592     477.865    -160.901
  H     -242.330     477.686    -159.400
  H     -243.923     478.368    -159.020
  H     -242.547     478.664    -157.929
  H     -247.227     485.689    -162.585
  H     -246.388     484.161    -162.703
  H     -247.111     484.873    -164.125

 3  4  5  6  7  8  9  10  11  12  23  26  30  31  33  0
 6-311+G(2d,p)
 ****
 35  36  37  38 0
 6-311+G(2d,p)
 ****
 1  2  13  14  15  16  17  18  19  20  21  22  24  25  27  28  29 0
 3-21G
 ****
 32  34  39  40  41  42  43  44  45  46  47  48  49 0
 3-21G
 ****


