%nproc=1
%NoSave
%Mem=1900MB
#P OB98/GEN NMR

erre ene a

0 1
  C      -98.046      61.519     -74.813
  O      -99.020      62.502     -75.114
  P      -99.936      63.025     -73.902
  C     -101.482      61.878     -72.149
  O     -100.781      61.767     -73.381
  C     -102.559      60.800     -72.059
  O     -103.543      60.993     -73.095
  C     -102.050      59.377     -72.243
  O     -101.384      58.917     -71.079
  C     -103.353      58.653     -72.562
  O     -104.089      58.407     -71.353
  C     -104.090      59.689     -73.428
  N     -106.212      57.634     -77.609
  C     -106.614      57.670     -76.319
  N     -105.984      58.218     -75.259
  C     -104.823      58.777     -75.635
  C     -104.274      58.799     -76.905
  C     -105.022      58.195     -77.926
  N     -104.606      58.155     -79.240
  N     -103.054      59.444     -76.901
  C     -102.877      59.816     -75.651
  N     -103.924      59.449     -74.850
  O     -101.031      63.928     -74.636
  O      -99.202      63.785     -72.841
  H     -104.842      57.827     -71.584
  H     -101.291      64.686     -74.077
  H     -107.571      57.199     -76.110
  H     -102.015      60.354     -75.281
  H     -105.166      59.720     -73.221
  H     -103.200      57.688     -73.056
  H     -101.371      59.322     -73.104
  H     -103.060      60.903     -71.086
  H     -101.960      62.861     -72.087
  H     -105.130      57.576     -79.877
  H     -103.660      58.448     -79.447
  H     -100.768      61.789     -71.325
  P     -100.117      57.954     -71.288
  C      -99.863      55.512     -72.044
  O     -100.759      56.592     -71.849
  O      -99.748      57.572     -69.781
  O      -99.014      58.537     -72.102
  H     -100.529      57.289     -69.274
  H     -100.433      54.641     -72.374
  H      -99.352      55.270     -71.108
  H      -99.131      55.768     -72.815
  H      -97.511      61.263     -75.703
  H      -98.528      60.647     -74.423
  H      -97.363      61.905     -74.085

 3  4  5  6  7  8  9  10  11  12  22  25  29  30  31  32 0
 6-311+G(2d,p)
 ****
 33  36  37 0
 6-311+G(2d,p)
 ****
 1  2  13  14  15  16  17  18  19  20  21  23  24  26 0
 3-21G
 ****
 27  28  34  35  38  39  40  41  42  43  44  45  46  47  48 0
 3-21G
 ****


