%nproc=1
%NoSave
%Mem=1900MB
#P OB98/GEN NMR

erre ene a

0 1
  C      -66.213     -74.280      33.237
  O      -66.000     -74.291      34.637
  P      -67.137     -73.651      35.568
  C      -65.648     -71.513      35.651
  O      -66.470     -72.429      36.361
  C      -65.307     -70.322      36.549
  O      -66.508     -69.608      36.915
  C      -64.651     -70.720      37.865
  O      -63.276     -71.014      37.689
  C      -64.905     -69.487      38.720
  O      -63.917     -68.474      38.469
  C      -66.291     -69.032      38.221
  N      -67.362     -69.375      39.150
  C      -67.964     -68.306      39.807
  O      -67.611     -67.138      39.644
  N      -68.957     -68.628      40.689
  C      -69.363     -69.889      41.015
  O      -70.223     -70.117      41.857
  C      -68.672     -70.982      40.312
  C      -67.715     -70.680      39.431
  O      -67.372     -74.757      36.701
  O      -68.402     -73.308      34.857
  H      -63.920     -68.316      37.504
  H      -68.314     -74.776      36.955
  H      -69.423     -67.867      41.156
  H      -68.968     -71.996      40.546
  H      -67.184     -71.471      38.913
  H      -66.300     -67.945      38.074
  H      -64.867     -69.712      39.790
  H      -65.181     -71.575      38.304
  H      -64.660     -69.637      35.988
  H      -66.179     -71.164      34.762
  H      -64.736     -72.024      35.329
  P      -62.907     -72.490      37.175
  C      -61.291     -72.747      39.210
  O      -61.472     -72.807      37.812
  O      -62.624     -72.203      35.625
  O      -63.986     -73.486      37.438
  H      -62.245     -71.320      35.479
  H      -62.180     -73.089      39.745
  H      -61.063     -71.720      39.502
  H      -60.448     -73.388      39.483
  H      -65.379     -74.736      32.746
  H      -66.317     -73.270      32.900
  H      -67.104     -74.826      33.008

 3  4  5  6  7  8  9  10  11  12  13  23  28  29  30  31  32 0
 6-311+G(2d,p)
 ****
 33  34 0
 6-311+G(2d,p)
 ****
 1  2  14  15  16  17  18  19  20  21  22  24  25  26 0
 3-21G
 ****
 27  35  36  37  38  39  40  41  42  43  44  45 0
 3-21G
 ****


