%nproc=1
%NoSave
%Mem=1900MB
#P OB98/GEN NMR

erre ene a

0 1
  C      -75.586     358.693     -45.360
  O      -74.472     359.567     -45.314
  P      -74.439     360.779     -46.371
  C      -74.558     360.907     -48.962
  O      -74.257     360.115     -47.820
  C      -75.213     360.070     -50.061
  O      -76.548     359.702     -49.645
  C      -75.317     360.779     -51.413
  O      -75.096     359.809     -52.440
  C      -76.764     361.232     -51.465
  O      -77.215     361.411     -52.805
  C      -77.458     360.096     -50.692
  N      -78.754     360.507     -50.155
  C      -79.831     359.645     -50.380
  O      -79.684     358.642     -51.071
  N      -81.059     359.977     -49.861
  C      -81.219     361.116     -49.262
  N      -82.454     361.394     -48.760
  C      -80.133     362.109     -49.113
  C      -78.936     361.731     -49.559
  O      -73.014     361.455     -46.093
  O      -75.563     361.753     -46.236
  H      -76.570     361.987     -53.269
  H      -73.046     362.415     -46.254
  H      -80.327     363.059     -48.638
  H      -78.077     362.383     -49.472
  H      -77.613     359.228     -51.345
  H      -76.877     362.186     -50.932
  H      -74.597     361.599     -51.518
  H      -74.640     359.138     -50.168
  H      -83.181     360.707     -48.890
  H      -73.633     361.329     -49.359
  H      -82.668     362.259     -48.280
  H      -75.210     361.736     -48.668
  P      -75.157     360.308     -53.963
  C      -77.106     360.372     -55.636
  O      -76.722     360.485     -54.280
  O      -74.819     358.956     -54.751
  O      -74.250     361.418     -54.381
  H      -74.765     359.138     -55.710
  H      -78.201     360.373     -55.690
  H      -76.732     359.441     -56.064
  H      -76.722     361.224     -56.206
  H      -75.479     357.939     -44.608
  H      -75.637     358.231     -46.324
  H      -76.483     359.249     -45.183

 3  4  5  6  7  8  9  10  11  12  13  21  23  27  28  29  30  32 0
 6-311+G(2d,p)
 ****
 34  35 0
 6-311+G(2d,p)
 ****
 1  2  14  15  16  17  18  19  20  22  24  25  26 0
 3-21G
 ****
 31  33  36  37  38  39  40  41  42  43  44  45  46 0
 3-21G
 ****


