%nproc=1
%NoSave
%Mem=1900MB
#P OB98/GEN NMR

erre ene a

0 1
  C     -103.358      38.069     -94.943
  O     -103.905      38.444     -93.694
  H     -103.578      38.855     -95.670
  H     -103.814      37.136     -95.284
  H     -102.274      37.951     -94.865
  P     -103.537      37.511     -92.437
  C     -103.293      39.640     -90.923
  O     -103.901      38.379     -91.140
  C     -104.286      40.611     -90.281
  O     -105.254      41.014     -91.280
  C     -105.052      40.019     -89.098
  O     -105.234      41.041     -88.116
  C     -106.392      39.632     -89.699
  O     -107.419      39.569     -88.713
  C     -106.571      40.715     -90.772
  N     -107.472      40.294     -91.843
  C     -108.433      41.221     -92.260
  O     -108.505      42.324     -91.716
  N     -109.315      40.865     -93.248
  C     -109.289      39.660     -93.730
  N     -110.203      39.362     -94.692
  C     -108.329      38.632     -93.282
  C     -107.453      39.016     -92.356
  O     -101.937      37.533     -92.476
  O     -104.140      36.148     -92.489
  H     -107.341      40.364     -88.139
  H     -101.564      38.408     -92.674
  H     -108.355      37.637     -93.704
  H     -106.706      38.326     -91.976
  H     -106.972      41.637     -90.327
  H     -106.319      38.643     -90.170
  H     -104.555      39.160     -88.645
  H     -103.743      41.517     -89.987
  H     -110.857      40.090     -94.956
  H     -102.936      40.058     -91.870
  H     -110.307      38.445     -95.099
  H     -102.429      39.493     -90.267
  P     -105.660      40.628     -86.628
  C     -103.728      41.809     -85.390
  O     -105.130      41.747     -85.606
  O     -105.360      39.221     -86.232
  O     -107.246      40.889     -86.625
  H     -107.666      40.178     -86.103
  H     -103.509      42.591     -84.693
  H     -103.233      42.008     -86.317
  H     -103.386      40.875     -84.997

 6  7  8  9  10  11  12  13  14  15  16  26  30  31  32  33  35 0
 6-311+G(2d,p)
 ****
 37  38 0
 6-311+G(2d,p)
 ****
 1  2  3  4  5  17  18  19  20  21  22  23  24  25 0
 3-21G
 ****
 27  28  29  34  36  39  40  41  42  43  44  45  46 0
 3-21G
 ****


