%nproc=1
%NoSave
%Mem=1900MB
#P OB98/GEN NMR

erre ene a

0 1
  C       69.148    -107.771      47.703
  O       68.891    -107.319      46.374
  P       67.389    -106.925      45.970
  C       65.358    -108.045      44.844
  O       66.706    -108.201      45.274
  C       64.988    -109.111      43.809
  O       65.673    -108.899      42.559
  C       65.361    -110.519      44.241
  O       64.471    -111.001      45.231
  C       65.316    -111.261      42.910
  O       63.970    -111.635      42.575
  C       65.830    -110.187      41.922
  N       67.204    -110.410      41.495
  C       67.410    -111.493      40.632
  O       66.469    -112.217      40.308
  N       68.683    -111.733      40.173
  C       69.660    -110.966      40.550
  N       70.897    -111.249      40.060
  C       69.485    -109.822      41.466
  C       68.245    -109.609      41.902
  O       67.235    -105.637      45.231
  O       66.643    -106.869      47.391
  H       63.987    -111.885      41.630
  H       65.917    -106.216      47.341
  H       70.331    -109.209      41.746
  H       68.028    -108.792      42.582
  H       65.199    -110.166      41.024
  H       65.909    -112.179      42.937
  H       66.389    -110.525      44.631
  H       63.905    -109.051      43.628
  H       70.994    -112.045      39.440
  H       65.225    -107.047      44.414
  H       71.712    -110.683      40.253
  H       64.699    -108.100      45.720
  P       64.876    -110.783      46.768
  C       66.983    -111.209      48.216
  O       66.312    -111.454      46.995
  O       63.878    -111.769      47.546
  O       64.736    -109.377      47.261
  H       63.640    -111.382      48.408
  H       67.765    -111.967      48.340
  H       66.300    -111.266      49.068
  H       67.453    -110.223      48.188
  H       70.190    -107.991      47.810
  H       68.575    -108.654      47.897
  H       68.872    -107.007      48.399

 3  4  5  6  7  8  9  10  11  12  13  23  27  28  29  30  32 0
 6-311+G(2d,p)
 ****
 34  35 0
 6-311+G(2d,p)
 ****
 1  2  14  15  16  17  18  19  20  21  22  24  25  26 0
 3-21G
 ****
 31  33  36  37  38  39  40  41  42  43  44  45  46 0
 3-21G
 ****


