%nproc=1
%NoSave
%Mem=1900MB
#P OB98/GEN NMR

erre ene a

0 1
  C      162.415    -496.836    -711.154
  O      162.507    -497.127    -712.549
  P      161.966    -496.058    -713.616
  C      164.417    -495.652    -714.345
  O      163.155    -495.065    -714.021
  C      164.829    -495.244    -715.764
  O      163.843    -495.642    -716.742
  C      164.959    -493.739    -715.943
  O      166.046    -493.108    -715.269
  C      164.891    -493.580    -717.445
  O      166.156    -493.810    -718.059
  C      163.890    -494.700    -717.826
  N      162.552    -494.179    -718.136
  C      162.371    -493.692    -719.427
  O      163.267    -493.645    -720.265
  N      161.115    -493.218    -719.708
  C      160.060    -493.154    -718.834
  O      158.964    -492.697    -719.139
  C      160.324    -493.651    -717.477
  C      161.534    -494.141    -717.192
  O      160.676    -495.400    -713.265
  O      161.796    -496.947    -714.941
  H      166.375    -494.753    -717.944
  H      160.964    -496.671    -715.380
  H      160.958    -492.867    -720.642
  H      159.515    -493.619    -716.768
  H      161.745    -494.520    -716.207
  H      164.248    -495.244    -718.713
  H      164.574    -492.569    -717.731
  H      164.050    -493.278    -715.526
  H      165.765    -495.764    -716.012
  H      164.349    -496.743    -714.267
  H      165.158    -495.326    -713.601
  P      166.247    -491.513    -715.230
  C      167.051    -491.257    -712.778
  O      166.035    -491.021    -713.720
  O      165.608    -490.715    -716.313
  O      167.853    -491.401    -715.391
  H      168.041    -490.582    -715.879
  H      166.736    -490.874    -711.797
  H      167.972    -490.754    -713.064
  H      167.227    -492.338    -712.679
  H      162.820    -497.652    -710.592
  H      161.389    -496.693    -710.886
  H      162.968    -495.945    -710.938

 3  4  5  6  7  8  9  10  11  12  13  23  28  29  30  31  32 0
 6-311+G(2d,p)
 ****
 33  34 0
 6-311+G(2d,p)
 ****
 1  2  14  15  16  17  18  19  20  21  22  24  25  26  27 0
 3-21G
 ****
 35  36  37  38  39  40  41  42  43  44  45 0
 3-21G
 ****


