%nproc=1
%NoSave
%Mem=1900MB
#P OB98/GEN NMR

erre ene a

0 1
  C      262.577     -39.332     203.649
  O      262.217     -40.018     202.447
  P      263.400     -40.683     201.592
  C      262.704     -40.711     199.080
  O      262.760     -41.415     200.319
  C      262.408     -41.683     197.934
  O      263.267     -42.838     197.999
  C      260.995     -42.236     197.969
  O      260.072     -41.283     197.472
  C      261.120     -43.480     197.100
  O      260.861     -43.193     195.716
  C      262.594     -43.903     197.306
  N      262.724     -45.164     198.020
  C      263.849     -45.932     197.701
  O      264.645     -45.544     196.845
  N      264.023     -47.132     198.344
  C      263.143     -47.538     199.206
  N      263.369     -48.738     199.805
  C      261.929     -46.767     199.546
  C      261.783     -45.602     198.921
  O      263.882     -41.896     202.513
  O      264.524     -39.744     201.284
  H      261.464     -42.456     195.481
  H      264.841     -42.048     202.403
  H      261.220     -47.152     200.267
  H      260.923     -44.972     199.112
  H      263.096     -44.014     196.336
  H      260.403     -44.251     197.399
  H      260.729     -42.528     198.994
  H      262.586     -41.162     196.985
  H      264.208     -49.238     199.545
  H      263.648     -40.195     198.900
  H      262.746     -49.153     200.483
  H      261.931     -39.940     199.151
  P      258.627     -41.221     198.152
  C      257.898     -40.386     195.833
  O      257.780     -40.212     197.235
  O      258.904     -40.324     199.455
  O      257.973     -42.516     198.497
  H      258.107     -40.289     200.014
  H      257.124     -39.789     195.342
  H      257.760     -41.433     195.561
  H      258.879     -40.035     195.499
  H      261.696     -38.941     204.114
  H      263.243     -38.528     203.415
  H      263.061     -40.013     204.317

 3  4  5  6  7  8  9  10  11  12  13  21  23  27  28  29  30  32 0
 6-311+G(2d,p)
 ****
 34  35 0
 6-311+G(2d,p)
 ****
 1  2  14  15  16  17  18  19  20  22  24  25  26 0
 3-21G
 ****
 31  33  36  37  38  39  40  41  42  43  44  45  46 0
 3-21G
 ****


