%nproc=1
%NoSave
%Mem=1900MB
#P OB98/GEN NMR

erre ene a

0 1
  C     -565.834     475.541    -522.629
  O     -566.763     476.622    -522.511
  P     -568.350     476.463    -522.527
  C     -568.976     478.833    -521.599
  O     -568.999     477.917    -522.690
  C     -569.700     480.158    -521.904
  O     -568.998     480.860    -522.959
  C     -571.112     479.885    -522.424
  O     -572.176     479.658    -521.517
  C     -571.378     481.019    -523.418
  O     -572.059     482.121    -522.812
  C     -569.969     481.432    -523.854
  N     -568.672     482.975    -528.560
  C     -568.938     483.733    -527.436
  N     -568.897     485.077    -527.596
  N     -569.229     483.223    -526.271
  C     -569.308     481.874    -526.272
  C     -569.094     481.012    -527.328
  C     -568.713     481.586    -528.605
  O     -568.455     480.955    -529.622
  N     -569.293     479.702    -526.968
  C     -569.665     479.770    -525.702
  N     -569.686     481.071    -525.226
  O     -568.924     475.576    -521.471
  O     -568.634     475.766    -523.961
  H     -571.511     482.446    -522.079
  H     -569.414     475.187    -523.840
  H     -568.432     483.420    -529.431
  H     -569.915     478.919    -525.077
  H     -569.842     482.523    -523.787
  H     -572.013     480.666    -524.237
  H     -568.801     485.528    -528.488
  H     -571.061     478.979    -523.032
  H     -569.300     485.633    -526.835
  H     -569.676     480.824    -521.035
  H     -567.924     479.018    -521.358
  H     -569.420     478.370    -520.712
  P     -572.870     478.244    -521.217
  C     -573.362     478.700    -518.740
  O     -573.915     478.448    -520.020
  O     -571.712     477.382    -520.506
  O     -573.402     477.530    -522.415
  H     -571.936     476.434    -520.514
  H     -574.124     478.523    -517.978
  H     -573.036     479.742    -518.674
  H     -572.508     478.035    -518.543
  H     -564.835     475.923    -522.588
  H     -565.987     475.040    -523.562
  H     -565.985     474.851    -521.825

 3  4  5  6  7  8  9  10  11  12  23  26  30  31 0
 6-311+G(2d,p)
 ****
 33  35  36  37  38 0
 6-311+G(2d,p)
 ****
 1  2  13  14  15  16  17  18  19  20  21  22  24  25 0
 3-21G
 ****
 27  28  29  32  34  39  40  41  42  43  44  45  46  47  48  49 0
 3-21G
 ****


