%nproc=1
%NoSave
%Mem=1900MB
#P OB98/GEN NMR

erre ene a

0 1
  C      998.726      30.540    -419.142
  O      998.588      31.916    -419.450
  H      999.792      30.279    -419.188
  H      998.188      29.930    -419.868
  H      998.357      30.340    -418.133
  P      997.093      32.499    -419.476
  C      996.601      31.730    -421.898
  O      996.820      32.824    -421.020
  C      995.812      32.174    -423.130
  O      994.639      32.906    -422.727
  C      996.586      33.086    -424.071
  O      997.409      32.319    -424.936
  C      995.451      33.759    -424.828
  O      994.972      32.876    -425.865
  C      994.365      33.909    -423.740
  N      991.648      38.236    -423.143
  C      991.509      37.194    -424.003
  N      992.297      36.108    -424.144
  C      993.322      36.146    -423.268
  C      993.613      37.146    -422.352
  C      992.704      38.230    -422.293
  N      992.848      39.286    -421.426
  N      994.751      36.845    -421.632
  C      995.107      35.659    -422.084
  N      994.304      35.223    -423.098
  O      996.808      33.595    -418.505
  O      996.243      31.156    -419.249
  H      994.830      31.999    -425.443
  H      996.628      30.416    -419.762
  H      990.649      37.251    -424.657
  H      995.938      35.078    -421.684
  H      993.366      33.709    -424.143
  H      995.754      34.689    -425.318
  H      997.160      33.849    -423.531
  H      995.466      31.264    -423.650
  H      996.057      30.927    -421.372
  H      992.283      40.103    -421.590
  H      993.714      39.352    -420.886
  H      997.583      31.334    -422.188
  P      999.017      32.432    -424.898
  C      998.741      34.781    -425.926
  O      999.376      33.503    -426.027
  O      999.716      31.120    -424.966
  O      999.309      33.230    -423.537
  H     1000.256      33.105    -423.289
  H      999.062      35.404    -426.735
  H      999.007      35.239    -424.996
  H      997.679      34.656    -425.971

 6  7  8  9  10  11  12  13  14  15  25  28  32  33  34  35 0
 6-311+G(2d,p)
 ****
 36  39  40 0
 6-311+G(2d,p)
 ****
 1  2  3  4  5  16  17  18  19  20  21  22  23  24 0
 3-21G
 ****
 26  27  29  30  31  37  38  41  42  43  44  45  46  47 0
 3-21G
 ****
 48 0
 3-21G
 ****


