%nproc=1
%NoSave
%Mem=1900MB
#P OB98/GEN NMR

erre ene a

0 1
  C     -891.920    -483.481    1644.187
  O     -892.050    -484.843    1643.782
  H     -892.470    -482.858    1643.478
  H     -890.890    -483.184    1644.203
  H     -892.380    -483.338    1645.177
  P     -891.480    -485.973    1644.759
  C     -893.570    -487.536    1644.945
  O     -892.770    -486.532    1645.592
  C     -894.960    -486.957    1644.577
  O     -894.750    -485.829    1643.645
  C     -895.910    -487.946    1643.938
  O     -897.240    -487.559    1644.260
  C     -895.640    -487.680    1642.453
  O     -896.570    -488.312    1641.596
  C     -895.560    -486.146    1642.469
  N     -895.010    -485.525    1641.280
  C     -895.900    -484.951    1640.361
  O     -897.130    -484.958    1640.505
  N     -895.310    -484.405    1639.243
  C     -894.000    -484.328    1638.969
  O     -893.540    -483.797    1637.937
  C     -893.150    -484.969    1639.978
  C     -893.640    -485.509    1641.056
  O     -890.310    -485.602    1645.609
  O     -891.160    -487.199    1643.783
  H     -890.200    -487.240    1643.623
  H     -897.450    -488.056    1641.860
  H     -895.980    -484.002    1638.609
  H     -892.050    -484.921    1639.737
  H     -893.000    -485.982    1641.809
  H     -896.580    -485.722    1642.660
  H     -894.640    -488.102    1642.170
  H     -895.730    -488.992    1644.255
  H     -895.390    -486.480    1645.506
  H     -893.700    -488.348    1645.659
  H     -893.060    -487.871    1644.059
  P     -898.000    -488.134    1645.594
  C     -898.890    -485.922    1646.680
  O     -897.960    -486.981    1646.723
  O     -897.540    -489.472    1646.038
  O     -899.570    -488.168    1645.141
  H     -900.000    -488.861    1645.684
  H     -898.713    -485.259    1647.501
  H     -899.883    -486.316    1646.747
  H     -898.780    -485.388    1645.760

 6  7  8  9  10  11  12  13  14  15  16  27  31  32  33  34  35 0
 6-311+G(2d,p)
 ****
 36  37 0
 6-311+G(2d,p)
 ****
 1  2  3  4  5  17  18  19  20  21  22  23  24  25 0
 3-21G
 ****
 26  28  29  30  38  39  40  41  42  43  44  45 0
 3-21G
 ****


