%nproc=1
%NoSave
%Mem=1900MB
#P OB98/GEN NMR

erre ene a

0 1
  C     -731.128     730.555    -179.735
  O     -730.164     729.627    -180.191
  H     -730.864     731.548    -180.113
  H     -731.119     730.580    -178.645
  H     -732.132     730.294    -180.092
  P     -730.555     728.071    -180.106
  C     -729.488     727.685    -177.760
  O     -730.680     727.719    -178.539
  C     -729.757     727.051    -176.401
  O     -729.994     725.636    -176.583
  C     -728.585     727.196    -175.403
  O     -729.137     727.387    -174.074
  C     -727.931     725.824    -175.456
  O     -727.185     725.535    -174.273
  C     -729.161     724.935    -175.650
  N     -727.441     720.468    -174.112
  C     -727.912     721.552    -173.379
  N     -727.859     721.453    -172.036
  N     -728.384     722.634    -173.939
  C     -728.390     722.600    -175.286
  C     -727.956     721.598    -176.118
  C     -727.418     720.398    -175.505
  O     -726.962     719.423    -176.090
  N     -728.076     721.960    -177.446
  C     -728.566     723.185    -177.402
  N     -728.778     723.613    -176.125
  O     -729.183     727.349    -180.544
  O     -731.704     727.649    -180.956
  H     -726.816     724.647    -174.357
  H     -729.213     727.146    -181.505
  H     -727.072     719.669    -173.633
  H     -728.764     723.795    -178.279
  H     -729.733     724.784    -174.725
  H     -727.256     725.755    -176.313
  H     -727.548     720.640    -171.539
  H     -727.896     728.005    -175.637
  H     -728.241     722.230    -171.492
  H     -730.686     727.486    -175.983
  H     -729.116     728.705    -177.625
  H     -728.719     727.107    -178.313
  P     -729.331     728.873    -173.573
  C     -727.254     729.038    -172.011
  O     -727.905     729.508    -173.189
  O     -730.040     728.688    -172.146
  O     -730.176     729.723    -174.489
  H     -730.681     729.420    -171.988
  H     -726.323     729.551    -171.889
  H     -727.074     727.987    -172.098
  H     -727.877     729.224    -171.161

 6  7  8  9  10  11  12  13  14  15  26  29  33  34 0
 6-311+G(2d,p)
 ****
 36  38  39  40  41 0
 6-311+G(2d,p)
 ****
 1  2  3  4  5  16  17  18  19  20  21  22  23  24  25 0
 3-21G
 ****
 27  28  30  31  32  35  37  42  43  44  45  46  47 0
 3-21G
 ****
 48  49 0
 3-21G
 ****


