%nproc=1
%NoSave
%Mem=1900MB
#P OB98/GEN NMR

erre ene a

0 1
  C       18.662    -372.291     235.097
  O       17.873    -373.095     234.219
  P       16.414    -372.592     233.790
  C       14.988    -374.301     235.097
  O       15.374    -372.940     234.975
  C       14.374    -374.624     236.464
  O       13.618    -375.857     236.420
  C       15.399    -374.755     237.601
  O       14.785    -374.227     238.793
  C       15.561    -376.264     237.714
  O       16.132    -376.659     238.960
  C       14.118    -376.712     237.467
  N       14.030    -378.134     237.101
  C       14.293    -379.066     238.116
  O       14.689    -378.678     239.213
  N       14.135    -380.393     237.824
  C       13.890    -380.758     236.606
  N       13.710    -382.090     236.363
  C       13.768    -379.809     235.484
  C       13.828    -378.523     235.811
  O       15.962    -373.007     232.426
  O       16.542    -371.001     233.893
  H       15.507    -376.430     239.680
  H       15.992    -370.595     233.196
  H       13.649    -380.169     234.469
  H       13.755    -377.745     235.062
  H       13.491    -376.545     238.357
  H       16.223    -376.622     236.913
  H       16.336    -374.221     237.412
  H       13.669    -373.814     236.701
  H       13.816    -382.737     237.143
  H       15.869    -374.941     234.944
  H       13.467    -382.454     235.449
  H       14.298    -374.549     234.280
  P       15.415    -372.913     239.465
  C       16.114    -374.037     241.708
  O       16.529    -373.380     240.526
  O       14.226    -372.439     240.433
  O       15.787    -371.802     238.541
  H       14.313    -371.477     240.595
  H       16.981    -374.534     242.166
  H       15.348    -374.784     241.514
  H       15.714    -373.300     242.421
  H       19.600    -372.774     235.277
  H       18.144    -372.162     236.024
  H       18.834    -371.335     234.648

 3  4  5  6  7  8  9  10  11  12  13  23  27  28  29  30  32 0
 6-311+G(2d,p)
 ****
 34  35 0
 6-311+G(2d,p)
 ****
 1  2  14  15  16  17  18  19  20  21  22  24  25  26 0
 3-21G
 ****
 31  33  36  37  38  39  40  41  42  43  44  45  46 0
 3-21G
 ****


