%nproc=1
%NoSave
%Mem=1900MB
#P OB98/GEN NMR

erre ene a

0 1
  C     -224.582     140.115     -65.260
  O     -225.240     139.040     -64.619
  H     -225.230     140.501     -66.049
  H     -223.646     139.768     -65.706
  H     -224.379     140.915     -64.544
  P     -224.453     138.341     -63.409
  C     -223.344     136.674     -65.079
  O     -223.162     137.648     -64.062
  C     -221.987     136.164     -65.579
  O     -221.268     137.276     -66.191
  C     -221.082     135.610     -64.468
  O     -220.230     134.610     -65.050
  C     -220.257     136.833     -64.102
  O     -219.138     136.474     -63.326
  C     -220.005     137.392     -65.500
  N     -215.921     140.461     -65.695
  C     -216.042     139.118     -65.781
  N     -217.164     138.373     -65.733
  C     -218.249     139.155     -65.601
  C     -218.284     140.536     -65.509
  C     -217.046     141.200     -65.556
  N     -216.919     142.567     -65.461
  N     -219.586     140.984     -65.376
  C     -220.321     139.890     -65.390
  N     -219.557     138.763     -65.514
  O     -225.393     137.107     -63.021
  O     -224.168     139.218     -62.236
  H     -218.690     135.686     -63.703
  H     -225.978     137.355     -62.281
  H     -215.111     138.569     -65.902
  H     -221.400     139.857     -65.303
  H     -219.269     136.795     -66.050
  H     -220.845     137.534     -63.501
  H     -221.637     135.174     -63.632
  H     -222.153     135.422     -66.368
  H     -223.896     137.134     -65.906
  H     -223.924     135.836     -64.682
  H     -215.994     142.965     -65.489
  H     -217.748     143.130     -65.340
  P     -220.590     133.057     -64.841
  C     -219.252     132.374     -62.698
  O     -220.503     132.717     -63.275
  O     -219.276     132.332     -65.408
  O     -221.810     132.572     -65.551
  H     -219.512     131.448     -65.746
  H     -219.382     132.181     -61.654
  H     -218.565     133.184     -62.828
  H     -218.866     131.499     -63.177

 6  7  8  9  10  11  12  13  14  15  25  28  32  33  34  35 0
 6-311+G(2d,p)
 ****
 36  37  40 0
 6-311+G(2d,p)
 ****
 1  2  3  4  5  16  17  18  19  20  21  22  23  24 0
 3-21G
 ****
 26  27  29  30  31  38  39 41  42  43  44  45  46  47  48 0
 3-21G
 ****


