%nproc=1
%NoSave
%Mem=1900MB
#P OB98/GEN NMR

erre ene a

0 1
  C     -352.474    -433.753      72.799
  O     -353.257    -434.759      73.440
  P     -353.334    -436.224      72.791
  C     -355.899    -436.058      72.678
  O     -354.704    -436.356      71.962
  C     -357.053    -437.001      72.305
  O     -357.452    -436.809      70.923
  C     -356.735    -438.497      72.489
  O     -357.947    -439.128      72.927
  C     -356.389    -438.920      71.075
  O     -356.457    -440.329      70.905
  C     -357.400    -438.100      70.279
  N     -357.045    -437.982      68.870
  C     -357.587    -438.932      67.997
  O     -358.244    -439.872      68.439
  N     -357.335    -438.795      66.652
  C     -356.504    -437.892      66.236
  N     -356.300    -437.776      64.895
  C     -355.772    -436.991      67.157
  C     -356.113    -437.077      68.437
  O     -353.048    -437.356      73.720
  O     -352.227    -436.149      71.622
  H     -356.251    -440.547      69.966
  H     -351.800    -437.027      71.531
  H     -355.027    -436.307      66.774
  H     -355.639    -436.454      69.185
  H     -358.404    -438.541      70.348
  H     -355.366    -438.604      70.836
  H     -355.943    -438.686      73.218
  H     -357.919    -436.729      72.932
  H     -356.790    -438.416      64.284
  H     -356.196    -435.028      72.467
  H     -355.702    -437.070      64.494
  H     -355.686    -436.102      73.756
  P     -358.176    -439.350      74.502
  C     -357.186    -441.748      74.726
  O     -357.059    -440.373      75.027
  O     -359.494    -440.276      74.508
  O     -358.416    -438.119      75.311
  H     -359.958    -440.159      75.356
  H     -356.220    -442.236      74.901
  H     -357.461    -441.903      73.675
  H     -357.934    -442.201      75.377
  H     -352.533    -432.844      73.360
  H     -352.847    -433.587      71.810
  H     -351.455    -434.074      72.746

 3  4  5  6  7  8  9  10  11  12  13  23  27  28  29  30  32 0
 6-311+G(2d,p)
 ****
 34  35 0
 6-311+G(2d,p)
 ****
 1  2  14  15  16  17  18  19  20  21  22  24  25  26 0
 3-21G
 ****
 31  33  36  37  38  39  40  41  42  43  44  45  46 0
 3-21G
 ****


