%nproc=1
%NoSave
%Mem=1900MB
#P OB98/GEN NMR

erre ene a

0 1
  C      -20.947    -520.399      16.397
  O      -20.783    -520.154      15.014
  P      -22.123    -520.108      14.121
  C      -23.720    -521.928      13.134
  O      -22.610    -521.634      13.962
  C      -23.705    -523.409      12.764
  O      -23.794    -524.227      13.948
  C      -24.850    -523.845      11.860
  O      -24.561    -523.535      10.506
  C      -24.914    -525.340      12.146
  O      -23.906    -526.053      11.390
  C      -24.608    -525.396      13.649
  N      -27.174    -528.050      17.105
  C      -26.094    -528.419      16.325
  N      -25.597    -529.657      16.537
  N      -25.541    -527.640      15.433
  C      -26.156    -526.436      15.322
  C      -27.243    -525.966      16.021
  C      -27.809    -526.814      17.044
  O      -28.703    -526.505      17.828
  N      -27.590    -524.700      15.618
  C      -26.695    -524.397      14.699
  N      -25.786    -525.408      14.499
  O      -21.578    -519.726      12.666
  O      -23.183    -519.170      14.611
  H      -24.193    -526.125      10.466
  H      -21.691    -518.768      12.499
  H      -27.550    -528.687      17.788
  H      -26.651    -523.464      14.169
  H      -24.013    -526.283      13.920
  H      -25.882    -525.779      11.865
  H      -25.977    -530.323      17.188
  H      -25.791    -523.374      12.173
  H      -24.799    -529.945      15.974
  H      -22.735    -523.633      12.289
  H      -23.658    -521.330      12.218
  H      -24.644    -521.670      13.663
  P      -25.763    -523.671       9.449
  C      -27.315    -525.586       8.631
  O      -26.265    -525.193       9.500
  O      -25.012    -523.559       8.030
  O      -26.827    -522.636       9.575
  H      -25.583    -523.081       7.396
  H      -27.188    -526.647       8.386
  H      -27.316    -525.004       7.704
  H      -28.270    -525.441       9.141
  H      -19.989    -520.405      16.874
  H      -21.421    -521.348      16.537
  H      -21.555    -519.630      16.826

 3  4  5  6  7  8  9  10  11  12  23  26  30  31 0
 6-311+G(2d,p)
 ****
 33  35  36  37  38 0
 6-311+G(2d,p)
 ****
 1  2  13  14  15  16  17  18  19  20  21  22  24  25 0
 3-21G
 ****
 27  28  29  32  34  39  40  41  42  43  44  45  46  47  48  49 0
 3-21G
 ****


