%nproc=1
%NoSave
%Mem=1900MB
#P OB98/GEN NMR

erre ene a

0 1
  C      247.770    -278.042     366.613
  O      247.951    -278.204     365.218
  H      246.776    -277.622     366.793
  H      248.521    -277.354     367.011
  H      247.846    -279.006     367.115
  P      249.345    -278.845     364.744
  C      248.046    -280.204     362.943
  O      249.120    -279.324     363.227
  C      247.427    -279.865     361.576
  O      246.566    -278.697     361.731
  C      248.471    -279.510     360.497
  O      247.951    -279.889     359.210
  C      248.514    -277.993     360.589
  O      249.121    -277.444     359.446
  C      247.028    -277.705     360.787
  N      244.374    -273.423     359.973
  C      244.350    -274.628     359.364
  N      245.084    -275.723     359.641
  C      245.892    -275.494     360.697
  C      246.024    -274.326     361.422
  C      245.223    -273.242     361.016
  N      245.253    -272.006     361.627
  N      246.977    -274.470     362.416
  C      247.399    -275.721     362.297
  N      246.772    -276.369     361.274
  O      249.417    -280.211     365.574
  O      250.555    -277.994     364.959
  H      250.090    -277.612     359.447
  H      249.902    -280.073     366.408
  H      243.651    -274.723     358.528
  H      248.163    -276.187     362.916
  H      246.460    -277.836     359.856
  H      249.101    -277.669     361.457
  H      249.442    -279.994     360.657
  H      246.779    -280.691     361.251
  H      247.287    -280.100     363.728
  H      248.413    -281.240     362.926
  H      244.663    -271.284     361.256
  H      245.904    -271.849     362.382
  P      248.189    -281.397     358.682
  C      245.686    -281.960     358.197
  O      247.002    -281.832     357.684
  O      247.866    -282.261     359.992
  O      249.567    -281.694     358.188
  H      248.559    -282.942     360.117
  H      245.023    -282.253     357.410
  H      245.368    -281.021     358.600
  H      245.674    -282.702     358.968

 6  7  8  9  10  11  12  13  14  15  25  28  32  33  34  35 0
 6-311+G(2d,p)
 ****
 36  37  40 0
 6-311+G(2d,p)
 ****
 1  2  3  4  5  16  17  18  19  20  21  22  23  24 0
 3-21G
 ****
 26  27  29  30  31  38  39 41  42  43  44  45  46  47  48 0
 3-21G
 ****


