%nproc=1
%NoSave
%Mem=1900MB
#P OB98/GEN NMR

erre ene a

0 1
  C      440.192     605.911    -898.460
  O      439.384     606.835    -897.750
  H      440.661     605.237    -897.740
  H      440.983     606.442    -898.990
  H      439.585     605.329    -899.140
  P      438.606     607.981    -898.550
  C      437.160     608.377    -896.460
  O      438.022     608.979    -897.420
  C      437.627     608.665    -895.030
  O      438.987     608.147    -894.870
  C      437.654     610.151    -894.690
  O      437.049     610.358    -893.410
  C      439.146     610.489    -894.600
  O      439.424     611.619    -893.780
  C      439.705     609.139    -894.110
  N      441.148     609.049    -894.300
  C      441.937     609.327    -893.160
  O      441.394     609.619    -892.100
  N      443.290     609.307    -893.310
  C      443.835     609.095    -894.460
  N      445.189     609.125    -894.530
  C      443.042     608.823    -895.680
  C      441.718     608.818    -895.540
  O      437.603     607.484    -899.540
  O      439.762     608.865    -899.230
  H      438.920     611.520    -892.940
  H      439.385     609.352    -900.000
  H      443.529     608.665    -896.640
  H      441.047     608.637    -896.370
  H      439.484     608.988    -893.050
  H      439.522     610.691    -895.620
  H      437.151     610.779    -895.430
  H      437.002     608.093    -894.340
  H      445.702     609.324    -893.670
  H      437.120     607.292    -896.650
  H      445.720     609.006    -895.390
  H      436.154     608.791    -896.590
  P      435.450     610.517    -893.400
  C      435.750     609.988    -890.870
  O      434.959     610.609    -891.870
  O      434.935     609.059    -893.870
  O      434.936     611.580    -894.310
  H      434.552     609.115    -894.760
  H      435.295     610.136    -889.913
  H      436.729     610.420    -890.870
  H      435.822     608.940    -891.072

 6  7  8  9  10  11  12  13  14  15  16  26  30  31  32  33  35 0
 6-311+G(2d,p)
 ****
 37  38 0
 6-311+G(2d,p)
 ****
 1  2  3  4  5  17  18  19  20  21  22  23  24  25 0
 3-21G
 ****
 27  28  29  34  36  39  40  41  42  43  44  45  46 0
 3-21G
 ****


