%nproc=1
%NoSave
%Mem=1900MB
#P OB98/GEN NMR

erre ene a

0 1
  C     -359.046    1187.749    -153.540
  O     -360.010    1187.863    -154.559
  H     -358.190    1188.375    -153.802
  H     -358.720    1186.724    -153.453
  H     -359.455    1188.104    -152.585
  P     -361.441    1187.161    -154.367
  C     -363.009    1189.170    -154.860
  O     -362.472    1188.301    -153.865
  C     -364.381    1189.704    -154.419
  O     -365.323    1188.607    -154.335
  C     -364.337    1190.401    -153.035
  O     -365.212    1191.521    -153.063
  C     -364.890    1189.336    -152.098
  O     -365.495    1189.902    -150.951
  C     -365.863    1188.596    -153.007
  N     -367.943    1185.760    -149.355
  C     -367.986    1187.135    -149.570
  N     -368.654    1187.853    -148.640
  N     -367.405    1187.737    -150.561
  C     -366.776    1186.874    -151.411
  C     -366.669    1185.523    -151.320
  C     -367.287    1184.867    -150.197
  O     -367.273    1183.654    -149.971
  N     -365.944    1185.010    -152.397
  C     -365.604    1186.076    -153.087
  N     -366.086    1187.222    -152.550
  O     -361.437    1185.927    -153.532
  O     -361.953    1186.860    -155.845
  H     -366.022    1190.677    -151.252
  H     -361.876    1185.907    -156.055
  H     -368.382    1185.347    -148.582
  H     -365.029    1186.061    -154.005
  H     -366.847    1189.073    -153.037
  H     -364.087    1188.657    -151.779
  H     -369.152    1187.442    -147.861
  H     -363.333    1190.722    -152.767
  H     -368.738    1188.861    -148.773
  H     -364.746    1190.410    -155.180
  H     -363.116    1188.571    -155.772
  H     -362.317    1189.980    -155.051
  P     -364.606    1192.980    -153.415
  C     -365.855    1193.094    -155.660
  O     -364.600    1193.161    -155.004
  O     -363.325    1193.303    -152.708
  O     -365.793    1193.976    -152.951
  H     -365.390    1194.784    -152.600
  H     -365.715    1193.229    -156.712
  H     -366.496    1193.864    -155.284
  H     -366.301    1192.138    -155.479

 6  7  8  9  10  11  12  13  14  15  26  29  33  34 0
 6-311+G(2d,p)
 ****
 36  38  39  40  41 0
 6-311+G(2d,p)
 ****
 1  2  3  4  5  16  17  18  19  20  21  22  23  24  25 0
 3-21G
 ****
 27  28  30  31  32  35  37  42  43  44  45  46  47 0
 3-21G
 ****
 48  49 0
 3-21G
 ****


