%nproc=1
%NoSave
%Mem=1900MB
#P OB98/GEN NMR

erre ene a

0 1
  C      171.806      94.128      93.250
  O      173.058      93.554      93.603
  P      173.794      94.090      94.923
  C      172.352      92.450      96.322
  O      172.817      93.783      96.161
  C      171.937      92.182      97.768
  O      171.503      90.800      97.887
  C      173.048      92.398      98.800
  O      172.427      92.870     100.002
  C      173.578      90.995      99.032
  O      174.273      90.879     100.271
  C      172.280      90.197      98.943
  N      172.589      85.499     100.935
  C      172.306      86.694     101.494
  N      172.241      87.902     100.897
  C      172.511      87.799      99.585
  C      172.851      86.654      98.884
  C      172.882      85.454      99.614
  N      173.161      84.233      99.046
  N      173.084      86.952      97.557
  C      172.888      88.251      97.459
  N      172.517      88.799      98.653
  O      173.698      95.678      94.756
  O      175.205      93.644      95.090
  H      173.674      91.166     100.985
  H      174.588      96.050      94.596
  H      172.096      86.677     102.560
  H      173.003      88.833      96.556
  H      171.694      90.255      99.869
  H      174.269      90.722      98.229
  H      173.829      93.095      98.478
  H      171.070      92.812      98.001
  H      173.160      91.763      96.058
  H      173.030      83.406      99.603
  H      173.192      84.163      98.034
  H      171.509      92.272      95.647
  P      173.340      93.723     101.005
  C      172.430      95.939     100.011
  O      173.565      95.152     100.322
  O      174.773      93.017     100.893
  O      172.844      93.743     102.414
  H      175.270      93.138     101.722
  H      172.690      96.994     100.125
  H      171.583      95.709     100.664
  H      172.140      95.755      98.972
  H      171.444      93.670      92.353
  H      171.928      95.179      93.090
  H      171.104      93.967      94.041

 3  4  5  6  7  8  9  10  11  12  22  25  29  30  31  32 0
 6-311+G(2d,p)
 ****
 33  36  37 0
 6-311+G(2d,p)
 ****
 1  2  13  14  15  16  17  18  19  20  21  23  24  26 0
 3-21G
 ****
 27  28  34  35  38  39  40  41  42  43  44  45  46  47  48 0
 3-21G
 ****


