%nproc=1
%NoSave
%Mem=1900MB
#P OB98/GEN NMR

erre ene a

0 1
  C      394.593    -283.705      -4.240
  O      395.296    -284.746      -4.898
  P      394.717    -286.235      -4.940
  C      394.591    -286.654      -7.529
  O      395.205    -286.930      -6.288
  C      395.276    -287.492      -8.619
  O      396.521    -286.875      -9.007
  C      395.576    -288.907      -8.138
  O      394.536    -289.794      -8.513
  C      396.904    -289.207      -8.808
  O      396.701    -289.624     -10.167
  C      397.597    -287.823      -8.765
  N      398.289    -287.427      -7.522
  C      399.485    -288.049      -7.177
  O      400.037    -288.907      -7.867
  N      400.026    -287.668      -5.975
  C      399.523    -286.709      -5.136
  O      399.874    -286.555      -3.976
  C      398.422    -285.910      -5.686
  C      397.853    -286.313      -6.824
  O      393.153    -285.999      -5.188
  O      394.972    -287.058      -3.720
  H      397.581    -289.732     -10.575
  H      392.657    -286.062      -4.349
  H      400.821    -288.213      -5.649
  H      398.081    -285.055      -5.125
  H      397.011    -285.756      -7.230
  H      398.321    -287.724      -9.583
  H      397.412    -290.028      -8.316
  H      395.724    -288.912      -7.052
  H      394.628    -287.518      -9.505
  H      394.670    -285.589      -7.759
  H      393.524    -286.902      -7.481
  P      393.557    -290.390      -7.394
  C      391.561    -289.601      -8.798
  O      392.182    -290.697      -8.150
  O      393.436    -289.573      -6.151
  O      394.178    -291.839      -7.098
  H      394.746    -291.795      -6.295
  H      390.747    -289.976      -9.422
  H      392.282    -289.072      -9.429
  H      391.158    -288.915      -8.047
  H      395.145    -282.792      -4.326
  H      394.473    -283.953      -3.206
  H      393.630    -283.584      -4.691

 3  4  5  6  7  8  9  10  11  12  13  23  28  29  30  31  32 0
 6-311+G(2d,p)
 ****
 33  34 0
 6-311+G(2d,p)
 ****
 1  2  14  15  16  17  18  19  20  21  22  24  25  26  27 0
 3-21G
 ****
 35  36  37  38  39  40  41  42  43  44  45 0
 3-21G
 ****


