%nproc=1
%NoSave
%Mem=1900MB
#P OB98/GEN NMR

erre ene a

0 1
  C      -93.484     111.267      -3.101
  O      -93.119     110.820      -4.410
  P      -93.203     111.917      -5.580
  C      -93.204     110.060      -7.387
  O      -92.605     111.259      -6.917
  C      -92.199     109.194      -8.153
  O      -91.657     109.913      -9.300
  C      -91.004     108.740      -7.308
  O      -90.642     107.429      -7.765
  C      -89.918     109.721      -7.706
  O      -88.621     109.230      -7.373
  C      -90.216     109.847      -9.198
  N      -87.316     111.397     -13.029
  C      -87.666     110.121     -12.637
  N      -87.218     109.107     -13.412
  N      -88.392     109.857     -11.582
  C      -88.804     110.971     -10.928
  C      -88.537     112.287     -11.224
  C      -87.705     112.562     -12.376
  O      -87.371     113.673     -12.767
  N      -89.160     113.138     -10.339
  C      -89.740     112.322      -9.475
  N      -89.601     111.006      -9.817
  O      -92.096     112.990      -5.152
  O      -94.553     112.538      -5.723
  H      -87.966     109.884      -7.699
  H      -92.520     113.761      -4.730
  H      -86.741     111.542     -13.841
  H      -90.292     112.632      -8.604
  H      -89.871     108.973      -9.767
  H      -90.068     110.679      -7.194
  H      -86.695     109.242     -14.265
  H      -91.191     108.727      -6.229
  H      -87.494     108.164     -13.170
  H      -92.731     108.317      -8.541
  H      -94.045     110.296      -8.043
  H      -93.627     109.515      -6.535
  P      -91.067     106.178      -6.862
  C      -88.836     105.182      -6.013
  O      -89.888     105.100      -6.952
  O      -92.252     105.508      -7.709
  O      -91.528     106.530      -5.485
  H      -92.946     105.189      -7.101
  H      -88.398     104.188      -5.885
  H      -89.185     105.540      -5.041
  H      -88.066     105.861      -6.390
  H      -93.390     110.457      -2.408
  H      -94.497     111.612      -3.111
  H      -92.838     112.067      -2.804

 3  4  5  6  7  8  9  10  11  12  23  26  30  31 0
 6-311+G(2d,p)
 ****
 33  35  36  37  38 0
 6-311+G(2d,p)
 ****
 1  2  13  14  15  16  17  18  19  20  21  22  24  25 0
 3-21G
 ****
 27  28  29  32  34  39  40  41  42  43  44  45  46  47  48  49 0
 3-21G
 ****


