%nproc=1
%NoSave
%Mem=1900MB
#P OB98/GEN NMR

erre ene a

0 1
  C       24.903     -25.224      -7.532
  O       26.165     -24.977      -6.946
  H       25.027     -25.651      -8.530
  H       24.358     -25.938      -6.909
  H       24.326     -24.296      -7.593
  P       27.142     -23.974      -7.730
  C       28.581     -25.993      -8.520
  O       28.544     -24.750      -7.833
  C       29.988     -26.231      -9.055
  O       30.092     -27.565      -9.604
  C       30.386     -25.286     -10.183
  O       30.839     -24.030      -9.707
  C       31.515     -26.072     -10.826
  O       32.705     -25.956     -10.027
  C       30.968     -27.507     -10.763
  N       31.279     -29.540     -15.451
  C       32.208     -29.341     -14.490
  N       32.040     -28.813     -13.261
  C       30.756     -28.484     -13.056
  C       29.697     -28.634     -13.937
  C       29.998     -29.187     -15.193
  N       29.061     -29.362     -16.186
  N       28.527     -28.159     -13.376
  C       28.874     -27.750     -12.172
  N       30.216     -27.895     -11.945
  O       27.446     -22.823      -6.660
  O       26.630     -23.446      -9.028
  H       33.401     -26.476     -10.473
  H       27.847     -22.049      -7.098
  H       33.220     -29.642     -14.746
  H       28.197     -27.333     -11.438
  H       31.758     -28.253     -10.621
  H       31.764     -25.712     -11.827
  H       29.575     -25.166     -10.911
  H       30.692     -26.162      -8.216
  H       27.870     -25.962      -9.353
  H       29.400     -29.625     -17.098
  H       28.140     -28.968     -16.059
  H       28.297     -26.796      -7.834
  P       30.243     -22.713     -10.408
  C       32.102     -22.922     -12.210
  O       31.437     -22.081     -11.275
  O       30.095     -21.694      -9.185
  O       28.953     -22.923     -11.131
  H       29.336     -21.095      -9.321
  H       32.868     -22.365     -12.709
  H       31.397     -23.283     -12.930
  H       32.541     -23.751     -11.695

 6  7  8  9  10  11  12  13  14  15  25  28  32  33  34  35 0
 6-311+G(2d,p)
 ****
 36  39  40 0
 6-311+G(2d,p)
 ****
 1  2  3  4  5  16  17  18  19  20  21  22  23  24 0
 3-21G
 ****
 26  27  29  30  31  37  38  41  42  43  44  45  46  47 0
 3-21G
 ****
 48 0
 3-21G
 ****


