%nproc=1
%NoSave
%Mem=1900MB
#P OB98/GEN NMR

erre ene a

0 1
  C     -326.434     146.039     703.805
  O     -327.774     146.241     704.270
  P     -328.149     146.169     705.830
  C     -328.521     144.462     707.711
  O     -328.129     144.647     706.364
  C     -328.496     142.985     708.145
  O     -329.508     142.213     707.452
  C     -327.155     142.269     707.909
  O     -327.032     141.281     708.940
  C     -327.392     141.584     706.563
  O     -326.484     140.526     706.296
  C     -328.849     141.154     706.729
  N     -328.864     138.280     702.478
  C     -328.208     138.141     703.653
  N     -328.295     138.924     704.741
  C     -329.183     139.923     704.571
  C     -329.922     140.185     703.427
  C     -329.736     139.312     702.344
  N     -330.365     139.473     701.119
  N     -330.715     141.316     703.598
  C     -330.431     141.730     704.831
  N     -329.512     140.920     705.459
  O     -329.407     146.914     706.199
  O     -326.894     146.843     706.569
  H     -326.619     140.249     705.372
  H     -327.221     147.474     707.248
  H     -327.525     137.290     703.722
  H     -330.842     142.613     705.290
  H     -328.926     140.235     707.323
  H     -327.276     142.335     705.758
  H     -326.288     142.942     707.898
  H     -328.755     142.958     709.213
  H     -329.545     144.846     707.839
  H     -330.096     138.856     700.376
  H     -330.910     140.304     700.960
  H     -327.865     145.053     708.370
  P     -325.688     141.120     709.793
  C     -323.669     139.532     709.766
  O     -324.856     139.927     709.105
  O     -325.882     140.960     711.272
  O     -324.819     142.430     709.446
  H     -324.139     142.561     710.131
  H     -322.878     140.268     709.592
  H     -323.350     138.556     709.371
  H     -323.847     139.437     710.839
  H     -326.409     146.130     702.739
  H     -326.102     145.062     704.087
  H     -325.790     146.774     704.241

 3  4  5  6  7  8  9  10  11  12  22  25  29  30  31  32 0
 6-311+G(2d,p)
 ****
 33  36  37 0
 6-311+G(2d,p)
 ****
 1  2  13  14  15  16  17  18  19  20  21  23  24  26 0
 3-21G
 ****
 27  28  34  35  38  39  40  41  42  43  44  45  46  47  48 0
 3-21G
 ****


