%nproc=1
%NoSave
%Mem=1900MB
#P OB98/GEN NMR

erre ene a

0 1
  C      232.564     290.428     -24.645
  O      233.310     290.505     -23.447
  H      233.192     290.775     -25.476
  H      231.690     291.080     -24.579
  H      232.249     289.401     -24.850
  P      232.739     289.799     -22.131
  C      232.718     292.048     -20.847
  O      231.952     290.945     -21.319
  C      231.805     293.090     -20.209
  O      230.950     293.657     -21.247
  C      230.888     292.510     -19.110
  O      230.695     293.504     -18.102
  C      229.595     292.287     -19.878
  O      228.484     292.187     -19.024
  C      229.588     293.515     -20.792
  N      228.642     293.362     -21.888
  C      227.318     293.706     -21.628
  O      226.920     294.120     -20.545
  N      226.433     293.496     -22.656
  C      226.716     292.881     -23.842
  O      225.861     292.649     -24.692
  C      228.125     292.490     -24.039
  C      229.004     292.749     -23.074
  O      233.731     289.031     -21.311
  O      231.539     288.880     -22.656
  H      227.759     291.720     -19.478
  H      231.341     288.176     -22.008
  H      225.466     293.751     -22.488
  H      228.376     291.991     -24.966
  H      230.044     292.453     -23.180
  H      229.336     294.427     -20.224
  H      229.652     291.366     -20.463
  H      231.279     291.594     -18.664
  H      232.417     293.908     -19.813
  H      233.244     292.485     -21.708
  H      233.461     291.692     -20.124
  P      231.587     293.538     -16.753
  C      229.764     292.730     -15.133
  O      231.041     292.458     -15.693
  O      231.777     294.903     -16.191
  O      232.996     292.928     -17.210
  H      233.714     293.485     -16.849
  H      229.503     291.952     -14.447
  H      229.034     292.776     -15.914
  H      229.793     293.667     -14.616

 6  7  8  9  10  11  12  13  14  15  16  26  31  32  33  34  35 0
 6-311+G(2d,p)
 ****
 36  37 0
 6-311+G(2d,p)
 ****
 1  2  3  4  5  17  18  19  20  21  22  23  24  25 0
 3-21G
 ****
 27  28  29  30  38  39  40  41  42  43  44  45 0
 3-21G
 ****


