%nproc=1
%NoSave
%Mem=1900MB
#P OB98/GEN NMR

erre ene a

0 1
  C      284.092       3.990     173.131
  O      283.808       4.376     171.806
  P      282.749       5.501     171.418
  C      283.784       7.779     172.175
  O      282.888       6.712     172.459
  C      283.155       9.135     172.527
  O      281.873       9.236     171.857
  C      282.882       9.256     174.036
  O      283.196      10.529     174.582
  C      281.440       8.781     174.158
  O      280.801       9.208     175.351
  C      280.833       9.293     172.855
  N      276.142       7.634     173.875
  C      276.893       8.580     174.543
  N      276.402       8.997     175.730
  N      278.035       9.039     174.100
  C      278.452       8.445     172.959
  C      277.794       7.499     172.208
  C      276.519       7.025     172.690
  O      275.871       6.105     172.189
  N      278.548       7.075     171.146
  C      279.681       7.738     171.272
  N      279.681       8.557     172.378
  O      281.376       5.035     171.061
  O      283.414       6.127     170.086
  H      281.097       8.619     176.070
  H      282.680       6.394     169.497
  H      275.305       7.260     174.308
  H      280.537       7.643     170.617
  H      280.512      10.333     172.945
  H      281.454       7.687     174.180
  H      275.605       8.555     176.163
  H      283.528       8.574     174.598
  H      277.043       9.490     176.345
  H      283.795       9.939     172.150
  H      283.992       7.728     171.101
  H      284.728       7.641     172.707
  P      283.930      10.876     175.956
  C      286.365      10.594     175.203
  O      285.320      10.083     176.008
  O      283.063      10.147     177.084
  O      284.040      12.336     176.255
  H      283.002      10.721     177.872
  H      287.143       9.831     175.112
  H      286.793      11.481     175.677
  H      285.998      10.849     174.204
  H      284.835       3.220     173.127
  H      283.200       3.623     173.594
  H      284.457       4.834     173.678

 3  4  5  6  7  8  9  10  11  12  23  26  30  31 0
 6-311+G(2d,p)
 ****
 33  35  36  37  38 0
 6-311+G(2d,p)
 ****
 1  2  13  14  15  16  17  18  19  20  21  22  24  25 0
 3-21G
 ****
 27  28  29  32  34  39  40  41  42  43  44  45  46  47  48  49 0
 3-21G
 ****


