%nproc=1
%NoSave
%Mem=1900MB
#P OB98/GEN NMR

erre ene a

0 1
  C      -12.377    -454.517    -332.906
  O      -13.513    -454.292    -332.066
  P      -13.348    -454.227    -330.465
  C      -15.399    -452.707    -330.214
  O      -14.784    -453.923    -329.806
  C      -16.924    -452.719    -330.095
  O      -17.514    -453.616    -331.072
  C      -17.464    -453.132    -328.721
  O      -18.669    -452.387    -328.535
  C      -17.765    -454.608    -328.919
  O      -18.658    -455.127    -327.950
  C      -18.289    -454.605    -330.365
  N      -18.198    -455.922    -330.991
  C      -19.285    -456.781    -330.823
  O      -20.240    -456.442    -330.118
  N      -19.248    -458.027    -331.407
  C      -18.173    -458.411    -332.026
  N      -18.178    -459.657    -332.565
  C      -16.965    -457.568    -332.158
  C      -17.055    -456.343    -331.631
  O      -12.249    -453.336    -329.990
  O      -13.064    -455.749    -330.045
  H      -18.687    -456.103    -328.041
  H      -12.505    -455.759    -329.244
  H      -16.078    -457.938    -332.658
  H      -16.226    -455.645    -331.677
  H      -19.340    -454.282    -330.396
  H      -16.832    -455.187    -328.863
  H      -16.757    -452.950    -327.906
  H      -17.281    -451.713    -330.347
  H      -19.018    -460.217    -332.428
  H      -15.117    -452.508    -331.256
  H      -17.365    -460.091    -332.963
  H      -14.988    -451.885    -329.612
  P      -18.793    -451.241    -327.426
  C      -20.443    -449.784    -328.736
  O      -20.254    -450.590    -327.584
  O      -17.675    -450.256    -327.409
  O      -18.890    -452.025    -326.027
  H      -18.693    -451.407    -325.298
  H      -21.507    -449.571    -328.857
  H      -20.079    -450.293    -329.637
  H      -19.909    -448.836    -328.614
  H      -12.687    -454.527    -333.930
  H      -11.932    -455.458    -332.659
  H      -11.663    -453.734    -332.757

 3  4  5  6  7  8  9  10  11  12  13  23  27  28  29  30  32 0
 6-311+G(2d,p)
 ****
 34  35 0
 6-311+G(2d,p)
 ****
 1  2  14  15  16  17  18  19  20  21  22  24  25  26 0
 3-21G
 ****
 31  33  36  37  38  39  40  41  42  43  44  45  46 0
 3-21G
 ****


