%nproc=1
%NoSave
%Mem=1900MB
#P OB98/GEN NMR

erre ene a

0 1
  C     -356.084    -120.151     283.958
  O     -356.089    -120.192     282.548
  H     -356.644    -121.011     284.337
  H     -356.572    -119.237     284.308
  H     -355.061    -120.198     284.343
  P     -355.191    -119.109     281.774
  C     -357.002    -117.383     281.078
  O     -356.141    -118.434     280.668
  C     -358.263    -117.358     280.208
  O     -359.302    -118.125     280.870
  C     -358.804    -115.948     279.955
  O     -359.292    -115.884     278.611
  C     -359.970    -115.832     280.925
  O     -360.949    -114.883     280.497
  C     -360.464    -117.283     280.987
  N     -361.202    -117.542     282.223
  C     -362.492    -117.012     282.305
  O     -362.951    -116.350     281.371
  N     -363.208    -117.185     283.463
  C     -362.652    -117.768     284.479
  N     -363.404    -117.883     285.608
  C     -361.266    -118.283     284.460
  C     -360.612    -118.144     283.311
  O     -354.196    -120.009     280.904
  O     -354.468    -118.138     282.646
  H     -361.627    -114.806     281.201
  H     -353.331    -119.568     280.788
  H     -360.840    -118.734     285.339
  H     -359.590    -118.487     283.201
  H     -361.119    -117.504     280.135
  H     -359.598    -115.515     281.906
  H     -358.060    -115.166     280.109
  H     -358.040    -117.869     279.264
  H     -364.339    -117.499     285.586
  H     -356.478    -116.429     280.970
  H     -363.055    -118.274     286.475
  H     -357.269    -117.521     282.131
  P     -358.510    -114.908     277.609
  C     -360.676    -114.391     276.264
  O     -359.330    -114.850     276.229
  O     -357.196    -115.736     277.238
  O     -358.180    -113.576     278.204
  H     -356.416    -115.332     277.664
  H     -361.085    -114.410     275.275
  H     -360.702    -113.390     276.642
  H     -361.254    -115.028     276.901

 6  7  8  9  10  11  12  13  14  15  16  26  30  31  32  33  35 0
 6-311+G(2d,p)
 ****
 37  38 0
 6-311+G(2d,p)
 ****
 1  2  3  4  5  17  18  19  20  21  22  23  24  25 0
 3-21G
 ****
 27  28  29  34  36  39  40  41  42  43  44  45  46 0
 3-21G
 ****


