%nproc=1
%NoSave
%Mem=1900MB
#P OB98/GEN NMR

erre ene a

0 1
  C      193.614    -261.698    -419.279
  O      194.905    -261.840    -418.726
  H      193.708    -261.427    -420.332
  H      193.082    -260.899    -418.757
  H      193.048    -262.631    -419.203
  P      195.024    -262.611    -417.324
  C      195.657    -265.064    -417.888
  O      196.118    -263.771    -417.528
  C      196.355    -266.132    -417.047
  O      195.600    -267.377    -417.158
  C      197.804    -266.424    -417.476
  O      198.586    -266.693    -416.306
  C      197.667    -267.716    -418.262
  O      198.884    -268.451    -418.310
  C      196.553    -268.406    -417.481
  N      196.037    -273.395    -417.648
  C      196.528    -272.576    -416.650
  N      197.015    -273.180    -415.545
  N      196.545    -271.272    -416.731
  C      196.009    -270.797    -417.882
  C      195.496    -271.500    -418.944
  C      195.499    -272.944    -418.852
  O      195.096    -273.724    -419.708
  N      195.107    -270.652    -419.951
  C      195.408    -269.443    -419.504
  N      195.956    -269.482    -418.253
  O      193.638    -263.410    -417.246
  O      195.231    -261.740    -416.131
  H      198.846    -269.054    -419.078
  H      192.987    -262.893    -416.736
  H      196.062    -274.394    -417.544
  H      195.265    -268.521    -420.050
  H      196.912    -268.849    -416.542
  H      197.351    -267.497    -419.289
  H      197.009    -274.177    -415.397
  H      198.266    -265.618    -418.053
  H      197.343    -272.590    -414.789
  H      196.316    -265.829    -415.994
  H      195.879    -265.243    -418.946
  H      194.573    -265.114    -417.745
  P      199.963    -265.893    -416.119
  C      199.193    -263.524    -415.367
  O      199.757    -264.771    -414.991
  O      200.071    -265.041    -417.470
  O      201.155    -266.774    -415.935
  H      201.003    -264.956    -417.734
  H      199.123    -262.891    -414.507
  H      198.216    -263.683    -415.774
  H      199.815    -263.059    -416.103

 6  7  8  9  10  11  12  13  14  15  26  29  33  34 0
 6-311+G(2d,p)
 ****
 36  38  39  40  41 0
 6-311+G(2d,p)
 ****
 1  2  3  4  5  16  17  18  19  20  21  22  23  24  25 0
 3-21G
 ****
 27  28  30  31  32  35  37  42  43  44  45  46  47 0
 3-21G
 ****
 48  49 0
 3-21G
 ****


