%nproc=1
%NoSave
%Mem=1900MB
#P OB98/GEN NMR

erre ene a

0 1
  C      533.670    -315.150      -0.324
  O      533.590    -315.803       0.945
  P      532.321    -316.651       1.427
  C      533.706    -318.575       2.464
  O      532.756    -317.537       2.695
  C      534.385    -318.996       3.772
  O      535.328    -317.979       4.201
  C      533.455    -319.146       4.972
  O      532.661    -320.316       4.888
  C      534.449    -319.137       6.134
  O      535.004    -320.439       6.353
  C      535.537    -318.175       5.610
  N      535.562    -316.908       6.331
  C      536.286    -316.871       7.521
  O      536.806    -317.896       7.969
  N      536.400    -315.669       8.184
  C      535.746    -314.634       7.750
  N      535.915    -313.468       8.442
  C      534.860    -314.658       6.577
  C      534.819    -315.821       5.915
  O      531.664    -317.444       0.339
  O      531.304    -315.570       2.048
  H      530.390    -315.914       1.981
  H      534.391    -320.906       6.959
  H      534.316    -313.787       6.268
  H      534.200    -315.937       5.026
  H      536.524    -318.656       5.696
  H      533.980    -318.816       7.068
  H      532.802    -318.259       5.037
  H      534.935    -319.929       3.594
  H      536.534    -313.479       9.233
  H      534.469    -318.197       1.778
  H      535.472    -312.593       8.174
  H      533.201    -319.431       1.991
  P      531.128    -320.128       4.441
  C      531.593    -322.284       3.044
  O      530.654    -321.508       3.760
  O      531.226    -319.112       3.194
  O      530.225    -319.603       5.500
  H      530.478    -318.491       3.226
  H      531.278    -323.326       3.077
  H      532.591    -322.196       3.465
  H      531.603    -321.955       2.001
  H      534.613    -314.652      -0.410
  H      532.879    -314.434      -0.407
  H      533.578    -315.876      -1.105

 3  4  5  6  7  8  9  10  11  12  13  24  27  28  29  30  32 0
 6-311+G(2d,p)
 ****
 34  35 0
 6-311+G(2d,p)
 ****
 1  2  14  15  16  17  18  19  20  21  22  23  25  26 0
 3-21G
 ****
 31  33  36  37  38  39  40  41  42  43  44  45  46 0
 3-21G
 ****


