%nproc=1
%NoSave
%Mem=1900MB
#P OB98/GEN NMR

erre ene a

0 1
  C       86.192     269.185     550.421
  O       86.843     268.207     549.596
  P       88.407     267.887     549.717
  C       88.896     269.323     547.629
  O       89.233     269.063     548.986
  C       89.943     270.200     546.940
  O       89.985     271.520     547.531
  C       91.376     269.661     547.033
  O       91.577     268.624     546.095
  C       92.187     270.924     546.777
  O       92.266     271.204     545.371
  C       91.338     271.997     547.489
  N       91.866     275.676     551.005
  C       91.312     275.679     549.768
  N       91.223     274.662     548.882
  C       91.741     273.535     549.413
  C       92.331     273.375     550.651
  C       92.383     274.522     551.473
  N       92.954     274.524     552.728
  N       92.769     272.088     550.836
  C       92.433     271.470     549.713
  N       91.808     272.301     548.830
  O       88.793     266.520     549.272
  O       88.749     268.103     551.266
  H       92.799     270.497     544.962
  H       89.504     267.537     551.514
  H       90.901     276.632     549.437
  H       92.621     270.418     549.512
  H       91.321     272.938     546.929
  H       93.217     270.853     547.158
  H       91.570     269.295     548.047
  H       89.658     270.313     545.891
  H       87.924     269.833     547.605
  H       92.985     275.389     553.240
  H       93.393     273.674     553.068
  H       88.804     268.369     547.102
  P       91.452     267.094     546.545
  C       93.837     266.243     546.937
  O       92.684     266.790     547.534
  O       91.265     266.103     545.443
  O       90.198     267.094     547.546
  H       89.753     266.225     547.509
  H       93.697     265.167     546.780
  H       94.687     266.392     547.603
  H       94.059     266.720     545.982
  H       85.153     269.231     550.168
  H       86.641     270.143     550.260
  H       86.297     268.910     551.450

 3  4  5  6  7  8  9  10  11  12  22  25  29  30  31  32 0
 6-311+G(2d,p)
 ****
 33  36  37 0
 6-311+G(2d,p)
 ****
 1  2  13  14  15  16  17  18  19  20  21  23  24  26 0
 3-21G
 ****
 27  28  34  35  38  39  40  41  42  43  44  45  46  47  48 0
 3-21G
 ****


