%nproc=1
%NoSave
%Mem=1900MB
#P OB98/GEN NMR

erre ene a

0 1
  C       33.523    -208.898      57.259
  O       32.947    -207.739      56.686
  H       32.964    -209.153      58.164
  H       34.567    -208.707      57.528
  H       33.458    -209.733      56.558
  P       33.645    -207.173      55.355
  C       34.511    -205.246      56.859
  O       34.838    -206.244      55.899
  C       35.610    -205.137      57.912
  O       35.876    -206.430      58.492
  C       36.943    -204.621      57.383
  O       36.940    -203.206      57.322
  C       37.900    -205.134      58.452
  O       37.874    -204.245      59.587
  C       37.285    -206.494      58.835
  N       39.583    -211.029      59.544
  C       39.279    -210.036      60.404
  N       38.719    -208.838      60.140
  C       38.461    -208.706      58.826
  C       38.722    -209.638      57.826
  C       39.306    -210.850      58.231
  N       39.619    -211.861      57.344
  N       38.326    -209.157      56.592
  C       37.784    -207.988      56.856
  N       37.870    -207.654      58.188
  O       32.724    -206.550      54.356
  O       34.426    -208.475      54.845
  H       38.500    -204.604      60.243
  H       34.825    -208.949      55.593
  H       39.521    -210.230      61.445
  H       37.293    -207.350      56.130
  H       37.352    -206.672      59.918
  H       38.931    -205.178      58.103
  H       37.201    -205.082      56.416
  H       35.239    -204.488      58.721
  H       33.553    -205.486      57.342
  H       40.207    -212.605      57.690
  H       39.532    -211.669      56.357
  H       34.397    -204.292      56.326
  P       37.216    -202.436      55.944
  C       39.396    -201.586      57.022
  O       38.812    -202.231      55.895
  O       36.399    -201.203      55.745
  O       36.960    -203.537      54.815
  H       36.846    -203.105      53.943
  H       40.453    -201.505      56.879
  H       39.198    -202.160      57.903
  H       38.975    -200.608      57.131

 6  7  8  9  10  11  12  13  14  15  25  28  32  33  34  35 0
 6-311+G(2d,p)
 ****
 36  39  40 0
 6-311+G(2d,p)
 ****
 1  2  3  4  5  16  17  18  19  20  21  22  23  24 0
 3-21G
 ****
 26  27  29  30  31  37  38  41  42  43  44  45  46  47 0
 3-21G
 ****
 48 0
 3-21G
 ****


