%nproc=1
%NoSave
%Mem=1900MB
#P OB98/GEN NMR

erre ene a

0 1
  C       57.142    -498.582    -285.575
  O       57.072    -497.314    -284.905
  P       58.335    -496.701    -284.120
  C       57.236    -495.300    -282.272
  O       57.969    -495.266    -283.494
  C       56.133    -494.226    -282.198
  O       56.664    -492.910    -282.555
  C       54.922    -494.467    -283.117
  O       53.801    -493.896    -282.439
  C       55.280    -493.640    -284.345
  O       54.166    -493.347    -285.168
  C       55.918    -492.422    -283.687
  N       56.245    -488.355    -286.791
  C       55.317    -488.716    -285.872
  N       55.317    -489.788    -285.062
  C       56.439    -490.519    -285.227
  C       57.481    -490.274    -286.111
  C       57.350    -489.135    -286.927
  N       58.267    -488.793    -287.900
  N       58.445    -491.257    -286.020
  C       57.996    -492.091    -285.103
  N       56.784    -491.686    -284.586
  O       59.607    -496.712    -284.912
  O       58.498    -497.641    -282.833
  H       54.462    -492.787    -285.912
  H       59.434    -497.870    -282.714
  H       54.456    -488.057    -285.796
  H       58.479    -492.996    -284.779
  H       55.156    -491.729    -283.309
  H       56.005    -494.204    -284.959
  H       54.752    -495.518    -283.334
  H       55.813    -494.157    -281.153
  H       57.936    -495.162    -281.443
  H       58.041    -488.012    -288.504
  H       59.023    -489.425    -288.103
  H       56.778    -496.293    -282.163
  P       53.278    -494.482    -281.031
  C       51.356    -496.010    -281.770
  O       51.703    -494.754    -281.216
  O       53.645    -493.668    -279.833
  O       53.902    -495.953    -280.957
  H       53.891    -496.262    -280.034
  H       51.525    -495.986    -282.855
  H       50.292    -496.193    -281.584
  H       51.944    -496.820    -281.329
  H       56.198    -498.798    -286.029
  H       57.380    -499.347    -284.866
  H       57.900    -498.546    -286.329

 3  4  5  6  7  8  9  10  11  12  22  25  29  30  31  32 0
 6-311+G(2d,p)
 ****
 33  36  37 0
 6-311+G(2d,p)
 ****
 1  2  13  14  15  16  17  18  19  20  21  23  24  26 0
 3-21G
 ****
 27  28  34  35  38  39  40  41  42  43  44  45  46  47  48 0
 3-21G
 ****


