%nproc=1
%NoSave
%Mem=1900MB
#P OB98/GEN NMR

erre ene a

0 1
  C     -390.227     -88.204     152.234
  O     -389.269     -87.194     151.941
  P     -387.826     -87.676     151.407
  C     -385.833     -87.461     153.047
  O     -387.024     -88.162     152.703
  C     -386.166     -86.151     153.752
  O     -387.047     -86.406     154.868
  C     -384.963     -85.432     154.353
  O     -384.253     -84.680     153.368
  C     -385.639     -84.519     155.360
  O     -386.132     -83.338     154.691
  C     -386.807     -85.382     155.861
  N     -386.698     -84.747     160.892
  C     -387.034     -83.854     159.884
  N     -387.414     -82.620     160.286
  N     -386.987     -84.142     158.612
  C     -386.623     -85.425     158.361
  C     -386.265     -86.405     159.263
  C     -386.266     -86.058     160.670
  O     -385.920     -86.786     161.594
  N     -385.970     -87.583     158.632
  C     -386.185     -87.329     157.354
  N     -386.550     -86.024     157.134
  O     -387.112     -86.299     151.014
  O     -387.867     -88.634     150.258
  H     -385.386     -82.956     154.201
  H     -386.429     -86.470     150.330
  H     -386.762     -84.484     161.851
  H     -386.090     -88.061     156.556
  H     -387.727     -84.795     155.939
  H     -384.953     -84.170     156.146
  H     -387.594     -82.386     161.256
  H     -384.305     -86.132     154.878
  H     -387.700     -81.965     159.573
  H     -386.692     -85.497     153.043
  H     -385.273     -87.235     152.132
  H     -385.212     -88.096     153.684
  P     -382.788     -84.167     153.782
  C     -382.829     -81.583     154.036
  O     -383.032     -82.843     154.651
  O     -382.197     -83.625     152.395
  O     -381.923     -85.213     154.400
  H     -381.216     -83.657     152.404
  H     -383.130     -81.586     152.993
  H     -381.775     -81.307     154.115
  H     -383.420     -80.838     154.572
  H     -391.133     -87.748     152.576
  H     -389.843     -88.850     152.996
  H     -390.426     -88.774     151.350

 3  4  5  6  7  8  9  10  11  12  23  26  30  31  33  0
 6-311+G(2d,p)
 ****
 35  36  37  38 0
 6-311+G(2d,p)
 ****
 1  2  13  14  15  16  17  18  19  20  21  22  24  25  27  28  29 0
 3-21G
 ****
 32  34  39  40  41  42  43  44  45  46  47  48  49 0
 3-21G
 ****


