%nproc=1
%NoSave
%Mem=1900MB
#P OB98/GEN NMR

erre ene a

0 1
  C     -115.874     167.422     -22.309
  O     -116.698     166.803     -23.283
  P     -117.527     167.678     -24.342
  C     -116.266     166.521     -26.260
  O     -116.587     167.758     -25.638
  C     -116.865     166.468     -27.664
  O     -116.426     167.640     -28.390
  C     -116.440     165.279     -28.526
  O     -117.196     164.096     -28.313
  C     -116.739     165.821     -29.917
  O     -118.150     165.728     -30.185
  C     -116.318     167.288     -29.792
  N     -113.399     168.529     -33.806
  C     -114.739     168.411     -33.663
  N     -115.439     168.058     -32.564
  C     -114.615     167.853     -31.526
  C     -113.232     167.939     -31.516
  C     -112.617     168.296     -32.727
  N     -111.252     168.435     -32.865
  N     -112.733     167.640     -30.263
  C     -113.799     167.392     -29.530
  N     -114.958     167.517     -30.244
  O     -118.022     168.979     -23.816
  O     -118.707     166.708     -24.815
  H     -118.390     164.786     -30.118
  H     -119.410     167.227     -25.250
  H     -115.327     168.627     -34.550
  H     -113.779     167.116     -28.487
  H     -116.977     167.963     -30.350
  H     -116.228     165.265     -30.709
  H     -115.365     165.086     -28.437
  H     -117.957     166.516     -27.575
  H     -116.694     165.712     -25.657
  H     -110.911     168.820     -33.731
  H     -110.687     168.423     -32.027
  H     -115.182     166.392     -26.288
  P     -116.383     162.710     -28.251
  C     -115.586     162.860     -25.764
  O     -115.254     162.921     -27.133
  O     -115.895     162.219     -29.569
  O     -117.424     161.720     -27.542
  H     -117.621     161.923     -26.615
  H     -114.663     162.867     -25.177
  H     -116.136     161.945     -25.535
  H     -116.186     163.731     -25.483
  H     -115.411     166.671     -21.704
  H     -116.470     168.060     -21.691
  H     -115.119     168.002     -22.797

 3  4  5  6  7  8  9  10  11  12  22  25  29  30  31  32 0
 6-311+G(2d,p)
 ****
 33  36  37 0
 6-311+G(2d,p)
 ****
 1  2  13  14  15  16  17  18  19  20  21  23  24  26 0
 3-21G
 ****
 27  28  34  35  38  39  40  41  42  43  44  45  46  47  48 0
 3-21G
 ****


