%nproc=1
%NoSave
%Mem=1900MB
#P OB98/GEN NMR

erre ene a

0 1
  C      110.509    -110.919     235.132
  O      111.486    -110.868     234.091
  P      110.949    -110.396     232.649
  C      111.882    -112.503     231.457
  O      111.883    -111.086     231.537
  C      112.317    -112.980     230.061
  O      111.194    -112.927     229.130
  C      113.449    -112.135     229.452
  O      114.272    -113.032     228.687
  C      112.686    -111.193     228.538
  O      113.507    -110.552     227.574
  C      111.634    -112.155     227.986
  N      107.858    -112.705     224.599
  C      108.829    -113.548     225.014
  N      109.810    -113.323     225.921
  C      109.705    -112.083     226.425
  C      108.770    -111.112     226.100
  C      107.805    -111.463     225.141
  N      106.823    -110.606     224.692
  N      109.008    -109.941     226.811
  C      110.108    -110.196     227.499
  N      110.520    -111.492     227.355
  O      111.352    -108.849     232.587
  O      109.484    -110.615     232.459
  H      114.076    -111.212     227.132
  H      110.581    -108.289     232.800
  H      108.834    -114.534     224.552
  H      110.653    -109.477     228.100
  H      112.058    -112.855     227.257
  H      112.214    -110.407     229.139
  H      114.071    -111.629     230.194
  H      112.634    -114.029     230.139
  H      110.881    -112.893     231.669
  H      106.181    -110.952     223.998
  H      106.760    -109.664     225.062
  H      112.539    -112.912     232.233
  P      115.603    -113.620     229.355
  C      117.368    -112.239     228.102
  O      116.717    -113.493     228.201
  O      115.290    -115.197     229.301
  O      115.951    -113.107     230.710
  H      114.994    -115.466     228.420
  H      118.151    -112.307     227.344
  H      117.820    -111.965     229.063
  H      116.646    -111.468     227.794
  H      110.972    -111.243     236.040
  H      109.735    -111.607     234.861
  H      110.088    -109.946     235.274

 3  4  5  6  7  8  9  10  11  12  22  25  29  30  31  32 0
 6-311+G(2d,p)
 ****
 33  36  37 0
 6-311+G(2d,p)
 ****
 1  2  13  14  15  16  17  18  19  20  21  23  24  26 0
 3-21G
 ****
 27  28  34  35  38  39  40  41  42  43  44  45  46  47  48 0
 3-21G
 ****


