%nproc=1
%NoSave
%Mem=1900MB
#P OB98/GEN NMR

erre ene a

0 1
  C     -596.938    -198.530    -413.382
  O     -597.881    -198.962    -412.425
  H     -596.437    -199.408    -413.797
  H     -596.186    -197.890    -412.912
  H     -597.429    -197.988    -414.195
  P     -598.875    -197.881    -411.779
  C     -598.655    -195.889    -410.162
  O     -597.968    -196.842    -410.961
  C     -598.070    -195.879    -408.751
  O     -596.637    -195.693    -408.812
  C     -598.589    -194.740    -407.879
  O     -599.902    -194.992    -407.424
  C     -597.525    -194.706    -406.795
  O     -597.768    -195.708    -405.798
  C     -596.240    -195.034    -407.589
  N     -595.449    -193.836    -407.873
  C     -594.696    -193.333    -406.815
  O     -594.662    -193.851    -405.699
  N     -594.021    -192.171    -407.068
  C     -594.136    -191.412    -408.197
  O     -593.712    -190.264    -408.279
  C     -594.892    -192.020    -409.298
  C     -595.517    -193.180    -409.087
  O     -600.036    -198.440    -411.026
  O     -599.358    -197.017    -413.040
  H     -600.257    -197.301    -413.298
  H     -597.051    -195.607    -405.140
  H     -593.503    -191.778    -406.289
  H     -594.949    -191.483    -410.235
  H     -596.112    -193.631    -409.873
  H     -595.616    -195.745    -407.034
  H     -597.492    -193.740    -406.293
  H     -598.553    -193.801    -408.438
  H     -598.270    -196.850    -408.286
  H     -599.713    -196.168    -410.113
  H     -598.564    -194.901    -410.627
  P     -601.018    -193.847    -407.508
  C     -601.523    -191.585    -406.400
  O     -600.576    -192.640    -406.552
  O     -602.424    -194.314    -407.320
  O     -600.821    -193.226    -408.972
  H     -601.693    -193.194    -409.419
  H     -601.124    -190.839    -405.745
  H     -602.429    -191.976    -405.986
  H     -601.727    -191.148    -407.355

 6  7  8  9  10  11  12  13  14  15  16  27  31  32  33  34  35 0
 6-311+G(2d,p)
 ****
 36  37 0
 6-311+G(2d,p)
 ****
 1  2  3  4  5  17  18  19  20  21  22  23  24  25 0
 3-21G
 ****
 26  28  29  30  38  39  40  41  42  43  44  45 0
 3-21G
 ****


