%nproc=1
%NoSave
%Mem=1900MB
#P OB98/GEN NMR

erre ene a

0 1
  C      246.654     156.339     346.415
  O      246.149     155.220     347.130
  P      246.804     154.767     348.522
  C      248.032     152.581     347.955
  O      248.148     153.989     348.119
  C      247.267     152.263     346.671
  O      247.975     152.852     345.553
  C      247.137     150.777     346.318
  O      246.058     150.110     346.964
  C      246.854     150.865     344.824
  O      245.476     151.208     344.608
  C      247.763     152.017     344.384
  N      251.952     153.384     341.779
  C      250.848     154.076     342.151
  N      249.764     153.634     342.829
  C      249.913     152.344     343.163
  C      250.983     151.507     342.861
  C      252.039     152.081     342.136
  N      253.165     151.380     341.775
  N      250.762     150.237     343.361
  C      249.592     150.308     343.965
  N      249.046     151.562     343.885
  O      245.879     154.036     349.432
  O      247.355     156.128     349.162
  H      245.423     151.643     343.733
  H      247.533     156.001     350.116
  H      250.832     155.123     341.861
  H      249.106     149.485     344.470
  H      247.307     152.647     343.615
  H      247.031     149.918     344.298
  H      248.081     150.247     346.477
  H      246.274     152.734     346.733
  H      247.482     152.178     348.810
  H      253.929     151.899     341.371
  H      253.309     150.458     342.177
  H      249.029     152.128     347.940
  P      246.239     148.534     347.251
  C      244.918     146.987     345.601
  O      246.043     147.809     345.835
  O      245.405     148.011     348.364
  O      247.817     148.406     347.517
  H      248.385     148.572     346.746
  H      244.890     146.720     344.539
  H      243.997     147.508     345.859
  H      245.002     146.067     346.193
  H      246.085     156.476     345.519
  H      247.680     156.168     346.164
  H      246.577     157.216     347.024

 3  4  5  6  7  8  9  10  11  12  22  25  29  30  31  32 0
 6-311+G(2d,p)
 ****
 33  36  37 0
 6-311+G(2d,p)
 ****
 1  2  13  14  15  16  17  18  19  20  21  23  24  26 0
 3-21G
 ****
 27  28  34  35  38  39  40  41  42  43  44  45  46  47  48 0
 3-21G
 ****


