%nproc=1
%NoSave
%Mem=1900MB
#P OB98/GEN NMR

erre ene a

0 1
  C        2.873    -111.138    -323.311
  O        3.444    -112.172    -322.535
  H        2.952    -111.405    -324.367
  H        3.419    -110.205    -323.143
  H        1.816    -111.001    -323.057
  P        3.249    -112.074    -320.947
  C        5.813    -112.391    -320.674
  O        4.666    -111.621    -320.340
  C        6.956    -111.474    -321.103
  O        6.595    -110.750    -322.302
  C        7.335    -110.420    -320.067
  O        8.210    -110.948    -319.076
  C        8.055    -109.409    -320.948
  O        9.381    -109.885    -321.257
  C        7.181    -109.420    -322.212
  N        5.617    -104.975    -324.088
  C        6.784    -105.675    -324.318
  N        7.672    -105.105    -325.166
  N        7.070    -106.827    -323.766
  C        6.096    -107.272    -322.934
  C        4.894    -106.674    -322.628
  C        4.592    -105.404    -323.248
  O        3.561    -104.754    -323.094
  N        4.164    -107.434    -321.749
  C        4.930    -108.479    -321.512
  N        6.117    -108.427    -322.203
  O        3.125    -113.608    -320.492
  O        2.070    -111.281    -320.492
  H        9.865    -109.940    -320.410
  H        2.490    -113.667    -319.753
  H        5.454    -104.088    -324.528
  H        4.674    -109.298    -320.855
  H        7.763    -109.254    -323.124
  H        8.167    -108.438    -320.469
  H        7.538    -104.196    -325.581
  H        6.450    -109.953    -319.624
  H        8.519    -105.614    -325.377
  H        7.821    -112.105    -321.350
  H        5.562    -113.069    -321.496
  H        6.110    -112.984    -319.800
  P        7.661    -111.024    -317.568
  C        9.073    -108.954    -316.892
  O        7.777    -109.531    -316.987
  O        8.824    -111.813    -316.800
  O        6.334    -111.690    -317.413
  H        8.468    -112.237    -315.994
  H        8.995    -107.965    -316.491
  H        9.516    -108.910    -317.865
  H        9.684    -109.552    -316.248

 6  7  8  9  10  11  12  13  14  15  26  29  33  34 0
 6-311+G(2d,p)
 ****
 36  38  39  40  41 0
 6-311+G(2d,p)
 ****
 1  2  3  4  5  16  17  18  19  20  21  22  23  24  25 0
 3-21G
 ****
 27  28  30  31  32  35  37  42  43  44  45  46  47 0
 3-21G
 ****
 48  49 0
 3-21G
 ****


