%nproc=1
%NoSave
%Mem=1900MB
#P OB98/GEN NMR

erre ene a

0 1
  C     -571.573     581.684    -531.539
  O     -570.507     582.555    -531.235
  H     -571.214     580.654    -531.454
  H     -571.917     581.842    -532.565
  H     -572.401     581.826    -530.841
  P     -570.739     584.141    -531.325
  C     -570.079     584.457    -528.863
  O     -571.115     584.599    -529.828
  C     -570.614     584.663    -527.446
  O     -571.542     583.592    -527.117
  C     -569.522     584.674    -526.368
  O     -569.724     585.780    -525.487
  C     -569.745     583.371    -525.616
  O     -569.249     583.403    -524.282
  C     -571.264     583.217    -525.754
  N     -571.710     581.866    -525.449
  C     -572.164     581.648    -524.142
  O     -572.172     582.571    -523.328
  N     -572.530     580.378    -523.771
  C     -572.421     579.405    -524.621
  N     -572.780     578.171    -524.185
  C     -571.922     579.588    -526.000
  C     -571.593     580.831    -526.347
  O     -571.701     584.573    -532.379
  O     -569.272     584.757    -531.520
  H     -569.574     582.607    -523.809
  H     -569.359     585.652    -531.931
  H     -571.845     578.741    -526.666
  H     -571.216     581.060    -527.339
  H     -571.793     583.920    -525.095
  H     -569.240     582.555    -526.144
  H     -568.513     584.727    -526.782
  H     -571.198     585.590    -527.429
  H     -573.107     578.091    -523.227
  H     -569.292     585.186    -529.087
  H     -572.712     577.333    -524.742
  H     -569.667     583.448    -528.949
  P     -568.937     587.132    -525.846
  C     -571.064     588.607    -526.034
  O     -569.931     588.065    -526.694
  O     -567.847     586.652    -526.920
  O     -568.299     587.781    -524.667
  H     -566.958     586.690    -526.523
  H     -571.627     589.202    -526.722
  H     -570.742     589.217    -525.216
  H     -571.677     587.811    -525.666

 6  7  8  9  10  11  12  13  14  15  16  26  30  31  32  33  35 0
 6-311+G(2d,p)
 ****
 37  38 0
 6-311+G(2d,p)
 ****
 1  2  3  4  5  17  18  19  20  21  22  23  24  25 0
 3-21G
 ****
 27  28  29  34  36  39  40  41  42  43  44  45  46 0
 3-21G
 ****


