%nproc=1
%NoSave
%Mem=1900MB
#P OB98/GEN NMR

erre ene a

0 1
  C       40.736     196.355    -148.316
  O       41.031     195.264    -149.168
  P       40.841     193.739    -148.732
  C       40.332     192.527    -150.979
  O       41.291     192.807    -149.969
  C       40.962     192.233    -152.344
  O       42.067     191.314    -152.169
  C       39.954     191.525    -153.252
  O       39.006     192.280    -153.983
  C       40.785     190.554    -154.083
  O       41.090     191.064    -155.385
  C       42.062     190.378    -153.261
  N       42.721     185.467    -154.328
  C       42.881     186.563    -155.148
  N       43.052     186.295    -156.465
  N       42.851     187.803    -154.724
  C       42.574     187.903    -153.401
  C       42.410     186.895    -152.487
  C       42.486     185.533    -152.965
  O       42.267     184.534    -152.282
  N       42.067     187.376    -151.246
  C       41.983     188.680    -151.418
  N       42.242     189.044    -152.721
  O       39.586     193.401    -147.999
  O       42.069     193.549    -147.698
  H       40.315     191.551    -155.709
  H       41.773     192.930    -147.007
  H       42.676     184.539    -154.728
  H       41.708     189.394    -150.655
  H       42.946     190.598    -153.870
  H       40.235     189.621    -154.246
  H       42.937     185.372    -156.846
  H       39.344     190.887    -152.606
  H       43.005     187.072    -157.114
  H       41.398     193.135    -152.782
  H       39.660     193.389    -151.041
  H       39.723     191.670    -150.670
  P       37.425     192.031    -154.019
  C       37.064     194.562    -154.078
  O       36.734     193.321    -154.672
  O       36.975     192.112    -152.489
  O       37.007     190.727    -154.617
  H       36.128     191.642    -152.369
  H       36.324     195.311    -154.378
  H       38.052     194.881    -154.425
  H       37.070     194.490    -152.984
  H       40.942     197.272    -148.827
  H       41.341     196.293    -147.435
  H       39.702     196.324    -148.042

 3  4  5  6  7  8  9  10  11  12  23  26  30  31 0
 6-311+G(2d,p)
 ****
 33  35  36  37  38 0
 6-311+G(2d,p)
 ****
 1  2  13  14  15  16  17  18  19  20  21  22  24  25 0
 3-21G
 ****
 27  28  29  32  34  39  40  41  42  43  44  45  46  47  48  49 0
 3-21G
 ****


