%nproc=1
%NoSave
%Mem=1900MB
#P OB98/GEN NMR

erre ene a

0 1
  C      134.779    -766.689    -751.449
  O      135.793    -765.716    -751.275
  P      135.927    -764.558    -752.377
  C      133.751    -763.178    -751.986
  O      135.162    -763.278    -751.778
  C      133.118    -762.254    -750.946
  O      133.026    -762.939    -749.683
  C      133.900    -760.981    -750.663
  O      133.680    -759.981    -751.651
  C      133.321    -760.558    -749.330
  O      132.079    -759.864    -749.533
  C      133.078    -761.930    -748.626
  N      134.009    -763.446    -743.902
  C      132.802    -763.178    -744.512
  N      131.683    -763.365    -743.790
  N      132.704    -762.758    -745.753
  C      133.898    -762.644    -746.384
  C      135.166    -762.888    -745.867
  C      135.260    -763.303    -744.478
  O      136.301    -763.486    -743.858
  N      136.137    -762.672    -746.809
  C      135.460    -762.356    -747.912
  N      134.106    -762.298    -747.685
  O      134.933    -765.062    -753.529
  O      137.302    -764.330    -752.884
  H      132.279    -759.103    -750.101
  H      135.207    -764.696    -754.403
  H      134.025    -763.797    -742.947
  H      135.921    -762.160    -748.868
  H      132.116    -761.959    -748.123
  H      133.991    -759.890    -748.763
  H      131.699    -763.823    -742.876
  H      134.978    -761.192    -750.561
  H      130.802    -763.234    -744.234
  H      132.095    -762.018    -751.295
  H      133.295    -764.185    -751.893
  H      133.579    -762.805    -753.007
  P      134.855    -758.914    -751.907
  C      135.207    -759.725    -754.346
  O      134.862    -758.657    -753.497
  O      136.172    -759.779    -751.622
  O      134.777    -757.701    -751.023
  H      136.905    -759.190    -751.336
  H      134.831    -760.687    -753.979
  H      136.294    -759.773    -754.449
  H      134.786    -759.542    -755.324
  H      134.814    -767.389    -750.641
  H      134.934    -767.204    -752.374
  H      133.823    -766.209    -751.464

 3  4  5  6  7  8  9  10  11  12  23  26  30  31  33  0
 6-311+G(2d,p)
 ****
 35  36  37  38 0
 6-311+G(2d,p)
 ****
 1  2  13  14  15  16  17  18  19  20  21  22  24  25  27  28  29 0
 3-21G
 ****
 32  34  39  40  41  42  43  44  45  46  47  48  49 0
 3-21G
 ****


