%nproc=1
%NoSave
%Mem=1900MB
#P OB98/GEN NMR

erre ene a

0 1
  C      684.152     921.771    -362.406
  O      683.271     921.060    -363.298
  P      683.043     921.697    -364.736
  C      683.277     919.375    -365.912
  O      683.728     920.721    -365.840
  C      683.252     918.918    -367.369
  O      682.328     919.690    -368.171
  C      684.597     919.070    -368.088
  O      685.515     918.070    -367.670
  C      684.166     918.979    -369.539
  O      683.961     917.603    -369.916
  C      682.813     919.718    -369.513
  N      681.900     922.936    -373.420
  C      681.692     921.605    -373.264
  N      681.963     920.816    -372.203
  C      682.505     921.548    -371.198
  C      682.758     922.905    -371.197
  C      682.446     923.616    -372.381
  N      682.669     924.970    -372.525
  N      683.308     923.289    -369.991
  C      683.401     922.193    -369.283
  N      682.909     921.108    -369.967
  O      683.991     922.987    -364.751
  O      681.630     922.064    -365.026
  H      683.397     917.202    -369.228
  H      683.455     923.799    -364.689
  H      681.252     921.108    -374.123
  H      683.821     922.114    -368.289
  H      682.055     919.222    -370.162
  H      684.907     919.419    -370.239
  H      685.022     920.072    -367.870
  H      682.944     917.864    -367.401
  H      682.277     919.281    -365.478
  H      682.480     925.386    -373.416
  H      683.146     925.472    -371.779
  H      683.938     918.748    -365.309
  P      686.653     918.503    -366.617
  C      685.942     916.487    -365.206
  O      686.160     917.873    -365.219
  O      686.358     920.067    -366.436
  O      688.046     918.148    -367.027
  H      685.402     920.241    -366.302
  H      685.636     916.182    -364.190
  H      686.864     915.949    -365.473
  H      685.133     916.216    -365.900
  H      684.221     921.243    -361.478
  H      683.765     922.753    -362.230
  H      685.124     921.844    -362.848

 3  4  5  6  7  8  9  10  11  12  22  25  29  30  31  32 0
 6-311+G(2d,p)
 ****
 33  36  37 0
 6-311+G(2d,p)
 ****
 1  2  13  14  15  16  17  18  19  20  21  23  24  26 0
 3-21G
 ****
 27  28  34  35  38  39  40  41  42  43  44  45  46  47  48 0
 3-21G
 ****


