%nproc=1
%NoSave
%Mem=1900MB
#P OB98/GEN NMR

erre ene a

0 1
  C     1846.877     497.358     743.965
  O     1846.212     496.463     744.857
  P     1844.808     495.841     744.392
  C     1845.771     493.932     742.810
  O     1845.087     495.173     742.914
  C     1844.802     492.844     742.440
  O     1843.999     493.225     741.294
  C     1845.496     491.503     742.020
  O     1845.971     490.771     743.171
  C     1844.377     490.815     741.261
  O     1843.396     490.230     742.194
  C     1843.683     492.024     740.558
  N     1844.072     492.132     739.153
  C     1843.094     492.551     738.223
  O     1841.920     492.768     738.633
  N     1843.466     492.630     736.914
  C     1844.708     492.311     736.426
  O     1844.950     492.399     735.247
  C     1845.684     491.861     737.404
  C     1845.376     491.786     738.708
  O     1843.996     497.200     744.057
  O     1844.197     494.933     745.409
  H     1844.581     497.951     743.811
  H     1843.786     489.395     742.513
  H     1842.775     492.939     736.278
  H     1846.701     491.610     737.054
  H     1846.065     491.473     739.424
  H     1842.566     491.967     740.581
  H     1844.685     490.076     740.584
  H     1846.313     491.729     741.318
  H     1844.096     492.645     743.286
  H     1846.265     493.684     743.768
  H     1846.563     494.028     742.049
  P     1847.457     490.188     743.048
  C     1848.579     492.054     744.571
  O     1848.451     491.490     743.286
  O     1847.552     489.860     741.466
  O     1847.728     489.012     744.006
  H     1847.165     490.546     740.935
  H     1849.526     492.621     744.534
  H     1848.661     491.239     745.346
  H     1847.768     492.711     744.806
  H     1847.793     497.688     744.408
  H     1846.249     498.203     743.773
  H     1847.087     496.854     743.045

 3  4  5  6  7  8  9  10  11  12  13  24  28  29  30  31  32 0
 6-311+G(2d,p)
 ****
 33  34 0
 6-311+G(2d,p)
 ****
 1  2  14  15  16  17  18  19  20  21  22  23  25  26  27 0
 3-21G
 ****
 35  36  37  38  39  40  41  42  43  44  45 0
 3-21G
 ****


