%nproc=1
%NoSave
%Mem=1900MB
#P OB98/GEN NMR

erre ene a

0 1
  C     -131.017     103.519     280.279
  O     -129.912     103.271     279.431
  P     -130.125     103.038     277.860
  C     -129.686     100.509     278.154
  O     -130.606     101.511     277.717
  C     -130.290      99.115     278.011
  O     -131.289      98.888     279.031
  C     -130.992      98.873     276.684
  O     -130.049      98.639     275.658
  C     -131.870      97.675     277.026
  O     -131.126      96.448     276.945
  C     -132.265      97.976     278.490
  N     -133.622      98.505     278.598
  C     -134.634      97.558     278.799
  O     -134.364      96.359     278.837
  N     -135.936      97.995     278.894
  C     -136.196      99.263     278.783
  N     -137.503      99.630     278.877
  C     -135.165     100.286     278.544
  C     -133.908      99.842     278.463
  O     -128.976     103.431     276.992
  O     -131.467     103.866     277.548
  H     -131.749      95.732     277.190
  H     -131.299     104.836     277.546
  H     -135.434     101.327     278.445
  H     -133.088     100.523     278.283
  H     -132.204      97.062     279.098
  H     -132.723      97.581     276.349
  H     -131.627      99.735     276.438
  H     -129.482      98.380     278.153
  H     -138.184      98.893     279.010
  H     -129.448     100.698     279.208
  H     -137.825     100.580     278.769
  H     -128.763     100.594     277.575
  P     -130.323      99.192     274.179
  C     -130.883      97.145     272.736
  O     -131.403      98.234     273.488
  O     -129.102      99.471     273.363
  O     -131.158     100.539     274.433
  H     -130.810     101.242     273.850
  H     -131.675      96.400     272.605
  H     -130.037      96.678     273.255
  H     -130.563      97.496     271.756
  H     -130.673     103.647     281.284
  H     -131.693     102.690     280.236
  H     -131.521     104.407     279.958

 3  4  5  6  7  8  9  10  11  12  13  23  27  28  29  30  32 0
 6-311+G(2d,p)
 ****
 34  35 0
 6-311+G(2d,p)
 ****
 1  2  14  15  16  17  18  19  20  21  22  24  25  26 0
 3-21G
 ****
 31  33  36  37  38  39  40  41  42  43  44  45  46 0
 3-21G
 ****


