%nproc=1
%NoSave
%Mem=1900MB
#P OB98/GEN NMR

erre ene a

0 1
  C      -53.977     130.469     298.847
  O      -53.572     131.683     299.447
  H      -54.890     130.096     299.320
  H      -54.176     130.651     297.788
  H      -53.179     129.723     298.934
  P      -53.335     131.647     301.033
  C      -53.914     134.158     301.306
  O      -52.937     133.141     301.466
  C      -53.252     135.529     301.295
  O      -52.740     135.849     302.606
  C      -52.058     135.653     300.356
  O      -52.461     135.831     299.004
  C      -51.390     136.904     300.911
  O      -52.065     138.076     300.415
  C      -51.625     136.763     302.422
  N      -47.469     137.997     305.175
  C      -48.422     138.758     304.589
  N      -49.489     138.366     303.864
  C      -49.540     137.026     303.781
  C      -48.643     136.119     304.325
  C      -47.562     136.654     305.047
  N      -46.588     135.869     305.627
  N      -49.025     134.827     304.045
  C      -50.133     134.943     303.344
  N      -50.481     136.254     303.151
  O      -51.957     130.841     301.188
  O      -54.429     131.018     301.829
  H      -51.734     138.831     300.937
  H      -51.997     130.297     301.996
  H      -48.311     139.832     304.723
  H      -50.714     134.114     302.960
  H      -51.922     137.717     302.875
  H      -50.338     136.992     300.632
  H      -51.377     134.800     300.465
  H      -54.019     136.275     301.045
  H      -54.630     134.115     302.136
  H      -45.960     136.290     306.289
  H      -46.670     134.862     305.531
  H      -54.453     133.988     300.368
  P      -51.751     134.908     297.895
  C      -51.453     137.208     296.724
  O      -51.680     135.811     296.568
  O      -52.878     133.828     297.549
  O      -50.479     134.265     298.324
  H      -52.462     133.012     297.209
  H      -51.431     137.675     295.762
  H      -50.517     137.364     297.218
  H      -52.241     137.634     297.309

 6  7  8  9  10  11  12  13  14  15  25  28  32  33  34  35 0
 6-311+G(2d,p)
 ****
 36  39  40 0
 6-311+G(2d,p)
 ****
 1  2  3  4  5  16  17  18  19  20  21  22  23  24 0
 3-21G
 ****
 26  27  29  30  31  37  38  41  42  43  44  45  46  47  48 0
 3-21G
 ****


