%nproc=1
%NoSave
%Mem=1900MB
#P OB98/GEN NMR

erre ene a

0 1
  C      151.537     420.706     332.482
  O      152.421     421.112     331.432
  P      153.002     419.989     330.439
  C      154.611     418.584     331.883
  O      153.322     418.664     331.286
  C      154.712     417.349     332.793
  O      154.533     416.123     332.016
  C      156.079     417.243     333.483
  O      155.929     416.639     334.786
  C      156.827     416.260     332.607
  O      157.922     415.660     333.303
  C      155.698     415.300     332.219
  N      158.078     411.168     330.359
  C      157.909     411.613     331.622
  N      157.239     412.707     332.041
  C      156.716     413.370     330.999
  C      156.803     413.029     329.655
  C      157.537     411.875     329.347
  N      157.743     411.444     328.052
  N      156.133     413.960     328.881
  C      155.697     414.854     329.721
  N      155.993     414.535     331.020
  O      154.104     420.434     329.536
  O      151.708     419.553     329.595
  H      157.544     415.056     333.977
  H      151.963     419.449     328.653
  H      158.370     411.008     332.397
  H      155.175     415.772     329.454
  H      155.472     414.595     333.020
  H      157.229     416.791     331.727
  H      156.610     418.193     333.593
  H      153.902     417.381     333.526
  H      154.798     419.489     332.468
  H      158.374     410.667     327.912
  H      157.458     412.035     327.283
  H      155.367     418.566     331.097
  P      155.968     417.658     336.030
  C      158.348     417.039     336.925
  O      157.512     417.987     336.296
  O      155.187     417.182     337.213
  O      155.373     418.999     335.378
  H      155.808     419.260     334.541
  H      159.381     417.402     336.886
  H      158.302     416.076     336.409
  H      158.047     416.915     337.965
  H      151.241     421.563     333.050
  H      152.039     420.010     333.121
  H      150.671     420.242     332.059

 3  4  5  6  7  8  9  10  11  12  22  25  29  30  31  32 0
 6-311+G(2d,p)
 ****
 33  36  37 0
 6-311+G(2d,p)
 ****
 1  2  13  14  15  16  17  18  19  20  21  23  24  26 0
 3-21G
 ****
 27  28  34  35  38  39  40  41  42  43  44  45  46  47  48 0
 3-21G
 ****


