%nproc=1
%NoSave
%Mem=1900MB
#P OB98/GEN NMR

erre ene a

0 1
  C      -40.342     -24.257     182.468
  O      -41.516     -23.471     182.524
  H      -40.561     -25.178     181.921
  H      -40.021     -24.519     183.479
  H      -39.543     -23.720     181.949
  P      -41.372     -21.973     183.075
  C      -40.806     -20.900     185.374
  O      -40.950     -22.095     184.621
  C      -40.959     -21.202     186.866
  O      -42.378     -21.310     187.173
  C      -40.291     -22.511     187.308
  O      -39.758     -22.325     188.623
  C      -41.454     -23.484     187.374
  O      -41.229     -24.596     188.230
  C      -42.574     -22.561     187.864
  N      -43.906     -23.103     187.601
  C      -44.332     -24.164     188.396
  O      -43.711     -24.618     189.353
  N      -45.542     -24.710     188.049
  C      -46.329     -24.327     187.003
  O      -47.393     -24.871     186.732
  C      -45.821     -23.209     186.196
  C      -44.650     -22.661     186.525
  O      -42.890     -21.469     183.144
  O      -40.505     -21.071     182.262
  H      -43.151     -21.056     182.300
  H      -40.367     -24.987     187.980
  H      -45.866     -25.478     188.613
  H      -46.414     -22.886     185.351
  H      -44.236     -21.847     185.938
  H      -42.463     -22.362     188.937
  H      -41.676     -23.869     186.372
  H      -39.499     -22.861     186.636
  H      -40.570     -20.351     187.438
  H      -41.580     -20.186     185.074
  H      -39.823     -20.461     185.172
  P      -38.171     -22.136     188.759
  C      -36.169     -23.829     188.797
  O      -37.573     -23.618     188.889
  O      -38.055     -21.528     190.231
  O      -37.591     -21.292     187.675
  H      -38.717     -21.889     190.846
  H      -35.957     -24.872     188.906
  H      -35.675     -23.282     189.572
  H      -35.819     -23.492     187.844

 6  7  8  9  10  11  12  13  14  15  16  27  31  32  33  34  35 0
 6-311+G(2d,p)
 ****
 36  37 0
 6-311+G(2d,p)
 ****
 1  2  3  4  5  17  18  19  20  21  22  23  24  25 0
 3-21G
 ****
 26  28  29  30  38  39  40  41  42  43  44  45 0
 3-21G
 ****


