%nproc=1
%NoSave
%Mem=1900MB
#P OB98/GEN NMR

erre ene a

0 1
  C     -334.173      29.641     112.033
  O     -334.345      30.876     112.701
  H     -333.984      29.839     110.974
  H     -335.076      29.032     112.122
  H     -333.315      29.106     112.450
  P     -334.671      30.803     114.270
  C     -335.858      33.102     114.150
  O     -334.803      32.338     114.721
  C     -335.532      34.592     114.208
  O     -335.402      35.021     115.575
  C     -334.229      34.978     113.516
  O     -334.439      35.137     112.121
  C     -333.927      36.307     114.187
  O     -334.705      37.349     113.568
  C     -334.413      36.079     115.630
  N     -332.255      37.155     120.161
  C     -333.153      37.831     119.414
  N     -333.640      37.515     118.196
  C     -333.113      36.359     117.755
  C     -332.183      35.562     118.409
  C     -331.752      35.998     119.672
  N     -330.834      35.306     120.431
  N     -331.870      34.453     117.651
  C     -332.641      34.551     116.588
  N     -333.385      35.704     116.586
  O     -333.753      29.955     115.083
  O     -336.198      30.319     114.243
  H     -334.300      37.527     112.699
  H     -336.686      30.771     113.533
  H     -333.529      38.751     119.852
  H     -332.716      33.806     115.801
  H     -334.906      36.967     116.036
  H     -332.878      36.595     114.095
  H     -333.425      34.269     113.741
  H     -336.380      35.140     113.774
  H     -336.797      32.907     114.684
  H     -330.440      35.784     121.226
  H     -330.368      34.517     120.006
  H     -335.978      32.777     113.111
  P     -333.752      34.147     111.062
  C     -332.749      35.934     109.510
  O     -333.763      34.953     109.675
  O     -334.339      32.779     111.024
  O     -332.205      34.149     111.465
  H     -331.753      33.385     111.057
  H     -332.857      36.402     108.554
  H     -331.788      35.468     109.572
  H     -332.838      36.672     110.280

 6  7  8  9  10  11  12  13  14  15  25  28  32  33  34  35 0
 6-311+G(2d,p)
 ****
 36  39  40 0
 6-311+G(2d,p)
 ****
 1  2  3  4  5  16  17  18  19  20  21  22  23  24 0
 3-21G
 ****
 26  27  29  30  31  37  38  41  42  43  44  45  46  47 0
 3-21G
 ****
 48 0
 3-21G
 ****


