%nproc=1
%NoSave
%Mem=1900MB
#P OB98/GEN NMR

erre ene a

0 1
  C      120.392     174.095    -151.584
  O      121.459     174.857    -152.112
  H      120.316     174.297    -150.512
  H      120.585     173.027    -151.724
  H      119.447     174.368    -152.060
  P      121.693     174.863    -153.698
  C      122.121     173.017    -155.449
  O      122.261     173.418    -154.092
  C      122.965     171.771    -155.711
  O      124.371     172.109    -155.703
  C      122.796     170.681    -154.660
  O      121.580     169.982    -154.838
  C      124.049     169.853    -154.904
  O      123.870     168.967    -156.019
  C      125.089     170.948    -155.227
  N      125.936     171.284    -154.085
  C      126.931     170.364    -153.757
  O      127.090     169.301    -154.356
  N      127.721     170.696    -152.690
  C      127.548     171.771    -151.868
  O      128.229     171.975    -150.868
  C      126.470     172.696    -152.245
  C      125.726     172.415    -153.320
  O      122.475     176.015    -154.233
  O      120.206     174.838    -154.298
  H      123.115     168.391    -155.794
  H      119.979     175.724    -154.636
  H      128.437     170.037    -152.429
  H      126.310     173.569    -151.627
  H      124.923     173.081    -153.610
  H      125.738     170.624    -156.052
  H      124.311     169.237    -154.042
  H      122.849     171.115    -153.655
  H      122.717     171.390    -156.714
  H      122.466     173.833    -156.095
  H      121.064     172.821    -155.656
  P      120.862     169.296    -153.584
  C      121.354     167.376    -151.945
  O      121.735     168.018    -153.160
  O      119.401     169.037    -153.747
  O      121.125     170.325    -152.387
  H      120.270     170.645    -152.041
  H      122.001     166.543    -151.764
  H      120.344     167.032    -152.025
  H      121.432     168.071    -151.135

 6  7  8  9  10  11  12  13  14  15  16  26  31  32  33  34  35 0
 6-311+G(2d,p)
 ****
 36  37 0
 6-311+G(2d,p)
 ****
 1  2  3  4  5  17  18  19  20  21  22  23  24  25 0
 3-21G
 ****
 27  28  29  30  38  39  40  41  42  43  44  45 0
 3-21G
 ****


