%nproc=1
%NoSave
%Mem=1900MB
#P OB98/GEN NMR

erre ene a

0 1
  C        9.560      10.124    -123.647
  O       10.902      10.452    -123.283
  P       11.866      10.922    -124.477
  C       11.232      13.432    -124.660
  O       12.202      12.476    -124.259
  C       11.905      14.734    -125.097
  O       10.970      15.672    -125.664
  C       12.594      15.469    -123.957
  O       13.852      14.875    -123.685
  C       12.708      16.880    -124.520
  O       13.871      17.016    -125.362
  C       11.423      17.015    -125.354
  N        8.886      21.402    -125.259
  C       10.028      21.054    -125.954
  N       10.555      22.002    -126.758
  N       10.600      19.881    -125.870
  C        9.964      19.031    -125.031
  C        8.812      19.250    -124.310
  C        8.191      20.554    -124.410
  O        7.168      20.902    -123.833
  N        8.434      18.129    -123.617
  C        9.425      17.280    -123.822
  N       10.345      17.754    -124.723
  O       10.903      10.909    -125.755
  O       13.049      10.033    -124.670
  H       13.943      16.230    -125.934
  H       11.155      10.179    -126.352
  H        8.494      22.323    -125.353
  H        9.509      16.305    -123.365
  H       11.616      17.516    -126.310
  H       12.812      17.627    -123.730
  H       10.166      22.926    -126.872
  H       11.955      15.471    -123.066
  H       11.388      21.765    -127.282
  H       12.640      14.480    -125.872
  H       10.541      13.632    -123.839
  H       10.635      13.007    -125.475
  P       14.251      14.637    -122.151
  C       13.212      12.368    -121.442
  O       14.349      13.057    -121.921
  O       12.924      15.062    -121.361
  O       15.430      15.428    -121.688
  H       13.165      15.606    -120.588
  H       13.234      11.343    -121.820
  H       12.282      12.846    -121.765
  H       13.240      12.342    -120.349
  H        9.016       9.827    -122.775
  H        9.568       9.320    -124.353
  H        9.090      10.979    -124.086

 3  4  5  6  7  8  9  10  11  12  23  26  30  31 0
 6-311+G(2d,p)
 ****
 33  35  36  37  38 0
 6-311+G(2d,p)
 ****
 1  2  13  14  15  16  17  18  19  20  21  22  24  25 0
 3-21G
 ****
 27  28  29  32  34  39  40  41  42  43  44  45  46  47  48  49 0
 3-21G
 ****


