%nproc=1
%NoSave
%Mem=1900MB
#P OB98/GEN NMR

erre ene a

0 1
  C        6.103    -763.298     -86.581
  O        4.903    -762.822     -87.166
  H        5.879    -763.673     -85.580
  H        6.833    -762.485     -86.505
  H        6.513    -764.113     -87.180
  P        5.021    -762.194     -88.640
  C        4.021    -760.051     -87.578
  O        3.957    -760.990     -88.649
  C        3.296    -758.760     -87.961
  O        3.927    -758.140     -89.098
  C        1.826    -758.960     -88.336
  O        1.022    -758.996     -87.168
  C        1.570    -757.692     -89.139
  O        1.318    -756.587     -88.249
  C        2.899    -757.477     -89.882
  N        1.612    -756.580     -94.768
  C        1.254    -755.963     -93.629
  N        1.588    -756.286     -92.356
  C        2.390    -757.374     -92.334
  C        2.833    -758.103     -93.431
  C        2.417    -757.665     -94.696
  N        2.776    -758.306     -95.871
  N        3.634    -759.157     -93.019
  C        3.716    -759.015     -91.709
  N        2.954    -757.978     -91.242
  O        4.928    -763.166     -89.771
  O        6.420    -761.420     -88.528
  H        0.822    -756.948     -87.491
  H        6.497    -760.980     -87.663
  H        0.619    -755.092     -93.732
  H        4.337    -759.638     -91.059
  H        3.172    -756.412     -89.932
  H        0.693    -757.777     -89.788
  H        1.686    -759.828     -88.980
  H        3.389    -758.059     -87.119
  H        5.073    -759.829     -87.338
  H        2.283    -758.042     -96.703
  H        3.271    -759.188     -95.795
  H        3.560    -760.513     -86.702
  P        0.204    -760.324     -86.779
  C       -1.914    -758.868     -86.813
  O       -1.135    -759.789     -86.063
  O        0.992    -761.337     -86.016
  O       -0.338    -760.877     -88.174
  H       -0.611    -761.816     -88.077
  H       -2.774    -758.582     -86.244
  H       -2.228    -759.328     -87.727
  H       -1.327    -758.001     -87.033

 6  7  8  9  10  11  12  13  14  15  25  28  32  33  34  35 0
 6-311+G(2d,p)
 ****
 36  39  40 0
 6-311+G(2d,p)
 ****
 1  2  3  4  5  16  17  18  19  20  21  22  23  24 0
 3-21G
 ****
 26  27  29  30  31  37  38  41  42  43  44  45  46  47 0
 3-21G
 ****
 48 0
 3-21G
 ****


