%nproc=1
%NoSave
%Mem=1900MB
#P OB98/GEN NMR

erre ene a

0 1
  C      124.588    -302.042      36.032
  O      125.221    -301.468      34.905
  P      125.373    -299.877      34.794
  C      127.951    -299.975      35.139
  O      126.710    -299.478      35.587
  C      129.115    -299.184      35.749
  O      130.349    -299.744      35.239
  C      129.147    -297.704      35.377
  O      129.993    -297.021      36.312
  C      129.815    -297.738      34.022
  O      130.367    -296.476      33.660
  C      130.840    -298.889      34.178
  N      130.989    -299.655      32.930
  C      131.776    -299.087      31.934
  O      132.393    -298.032      32.086
  N      131.758    -299.727      30.721
  C      131.010    -300.826      30.419
  O      130.770    -301.195      29.276
  C      130.399    -301.509      31.568
  C      130.392    -300.888      32.749
  O      124.195    -299.341      35.735
  O      125.271    -299.328      33.411
  H      130.701    -296.563      32.738
  H      123.411    -299.123      35.202
  H      132.209    -299.236      29.959
  H      129.922    -302.466      31.397
  H      129.903    -301.348      33.604
  H      131.829    -298.511      34.463
  H      129.068    -298.001      33.261
  H      128.166    -297.230      35.338
  H      129.112    -299.308      36.841
  H      127.987    -299.932      34.049
  H      128.057    -301.033      35.414
  P      129.572    -295.536      36.752
  C      127.607    -296.714      37.912
  O      128.020    -295.604      37.139
  O      129.955    -294.443      35.808
  O      130.289    -295.368      38.177
  H      130.354    -294.422      38.402
  H      126.752    -296.419      38.522
  H      128.411    -297.070      38.567
  H      127.304    -297.525      37.242
  H      124.579    -303.107      35.932
  H      123.583    -301.681      36.099
  H      125.123    -301.771      36.918

 3  4  5  6  7  8  9  10  11  12  13  23  28  29  30  31  32 0
 6-311+G(2d,p)
 ****
 33  34 0
 6-311+G(2d,p)
 ****
 1  2  14  15  16  17  18  19  20  21  22  24  25  26  27 0
 3-21G
 ****
 35  36  37  38  39  40  41  42  43  44  45 0
 3-21G
 ****


