%nproc=1
%NoSave
%Mem=1900MB
#P OB98/GEN NMR

erre ene a

0 1
  C      -89.999       0.692      30.814
  O      -88.815       0.225      31.466
  P      -88.294      -1.261      31.165
  C      -88.052      -1.249      28.598
  O      -87.374      -1.227      29.846
  C      -87.131      -0.763      27.469
  O      -86.746       0.628      27.685
  C      -85.834      -1.579      27.376
  O      -85.394      -1.670      26.009
  C      -84.837      -0.715      28.124
  O      -83.491      -1.030      27.765
  C      -85.305       0.679      27.714
  N      -81.717       4.236      28.579
  C      -81.932       3.411      27.530
  N      -82.920       2.506      27.359
  C      -83.755       2.510      28.413
  C      -83.670       3.300      29.552
  C      -82.588       4.195      29.619
  N      -82.355       5.013      30.700
  N      -84.704       3.020      30.422
  C      -85.372       2.042      29.842
  N      -84.857       1.723      28.614
  O      -89.338      -2.329      31.178
  O      -87.214      -1.502      32.328
  H      -82.904      -0.478      28.313
  H      -87.316      -2.410      32.673
  H      -81.208       3.484      26.721
  H      -86.220       1.525      30.271
  H      -84.963       0.943      26.706
  H      -84.949      -0.870      29.206
  H      -85.900      -2.589      27.792
  H      -87.682      -0.799      26.520
  H      -88.942      -0.618      28.650
  H      -81.489       5.536      30.713
  H      -82.907       4.886      31.538
  H      -88.417      -2.266      28.404
  P      -85.486      -3.133      25.334
  C      -87.558      -3.415      23.765
  O      -86.249      -2.924      23.942
  O      -86.047      -4.174      26.248
  O      -83.963      -3.398      24.919
  H      -83.545      -2.676      24.419
  H      -87.942      -3.060      22.804
  H      -88.223      -3.057      24.557
  H      -87.550      -4.511      23.757
  H      -90.205       1.695      31.124
  H      -90.823       0.062      31.076
  H      -89.855       0.669      29.754

 3  4  5  6  7  8  9  10  11  12  22  25  29  30  31  32 0
 6-311+G(2d,p)
 ****
 33  36  37 0
 6-311+G(2d,p)
 ****
 1  2  13  14  15  16  17  18  19  20  21  23  24  26 0
 3-21G
 ****
 27  28  34  35  38  39  40  41  42  43  44  45  46  47  48 0
 3-21G
 ****


