%nproc=1
%NoSave
%Mem=1900MB
#P OB98/GEN NMR

erre ene a

0 1
  C     1147.417     415.520     397.517
  O     1147.109     416.886     397.812
  P     1145.551     417.276     397.870
  C     1145.324     417.359     395.276
  O     1145.200     418.055     396.513
  C     1144.576     418.092     394.166
  O     1143.155     417.992     394.339
  C     1144.867     419.579     394.087
  O     1146.109     419.844     393.436
  C     1143.696     420.078     393.256
  O     1143.973     419.875     391.854
  C     1142.555     419.160     393.709
  N     1137.711     419.776     395.076
  C     1138.249     419.061     394.026
  N     1137.387     418.390     393.241
  N     1139.535     419.004     393.762
  C     1140.287     419.693     394.637
  C     1139.878     420.458     395.726
  C     1138.451     420.531     395.979
  O     1137.913     421.170     396.875
  N     1140.935     421.002     396.405
  C     1142.001     420.565     395.756
  N     1141.659     419.779     394.669
  O     1145.511     418.436     398.977
  O     1144.649     416.137     398.213
  H     1144.696     420.490     391.623
  H     1144.631     418.466     399.403
  H     1136.729     419.792     395.225
  H     1143.021     420.780     396.013
  H     1141.946     418.790     392.869
  H     1143.496     421.146     393.389
  H     1136.406     418.324     393.421
  H     1144.835     420.039     395.100
  H     1137.762     417.833     392.485
  H     1144.839     417.616     393.212
  H     1144.913     416.342     395.380
  H     1146.383     417.250     395.032
  P     1147.243     420.568     394.297
  C     1146.296     422.966     394.004
  O     1147.341     422.061     393.717
  O     1148.586     419.878     393.778
  O     1147.081     420.445     395.780
  H     1149.271     419.880     394.480
  H     1145.986     422.894     395.047
  H     1145.433     422.760     393.347
  H     1146.649     423.985     393.807
  H     1148.479     415.388     397.507
  H     1147.016     415.263     396.559
  H     1146.986     414.888     398.265

 3  4  5  6  7  8  9  10  11  12  23  26  30  31  33  0
 6-311+G(2d,p)
 ****
 35  36  37  38 0
 6-311+G(2d,p)
 ****
 1  2  13  14  15  16  17  18  19  20  21  22  24  25  27  28  29 0
 3-21G
 ****
 32  34  39  40  41  42  43  44  45  46  47  48  49 0
 3-21G
 ****


