%nproc=1
%NoSave
%Mem=1900MB
#P OB98/GEN NMR

erre ene a

0 1
  C      429.130    -221.447    -139.393
  O      429.744    -221.454    -140.676
  P      429.414    -222.608    -141.731
  C      428.557    -221.031    -143.649
  O      429.493    -221.986    -143.196
  C      429.056    -220.414    -144.966
  O      430.213    -219.587    -144.712
  C      429.462    -221.494    -145.969
  O      428.383    -221.781    -146.848
  C      430.659    -220.865    -146.655
  O      430.235    -219.944    -147.681
  C      431.330    -220.101    -145.492
  N      432.212    -220.852    -144.578
  C      433.034    -221.859    -145.081
  O      433.119    -222.132    -146.285
  N      433.785    -222.545    -144.155
  C      433.798    -222.307    -142.807
  O      434.269    -223.070    -141.978
  C      433.123    -221.075    -142.379
  C      432.361    -220.429    -143.258
  O      427.853    -222.856    -141.520
  O      430.209    -223.870    -141.579
  H      429.671    -220.441    -148.295
  H      427.695    -223.643    -140.944
  H      434.274    -223.373    -144.504
  H      433.231    -220.767    -141.342
  H      431.812    -219.534    -142.947
  H      431.905    -219.236    -145.850
  H      431.266    -221.630    -147.159
  H      429.795    -222.402    -145.447
  H      428.267    -219.772    -145.380
  H      428.409    -220.255    -142.888
  H      427.578    -221.507    -143.804
  P      428.361    -223.176    -147.631
  C      427.816    -224.570    -145.545
  O      427.345    -224.100    -146.804
  O      429.701    -223.787    -147.929
  O      427.557    -222.826    -148.979
  H      428.187    -222.651    -149.717
  H      426.979    -225.029    -145.009
  H      428.209    -223.742    -144.955
  H      428.599    -225.319    -145.709
  H      429.476    -220.601    -138.836
  H      429.384    -222.346    -138.871
  H      428.068    -221.389    -139.506

 3  4  5  6  7  8  9  10  11  12  13  23  28  29  30  31  32 0
 6-311+G(2d,p)
 ****
 33  34 0
 6-311+G(2d,p)
 ****
 1  2  14  15  16  17  18  19  20  21  22  24  25  26  27 0
 3-21G
 ****
 35  36  37  38  39  40  41  42  43  44  45 0
 3-21G
 ****


