%nproc=1
%NoSave
%Mem=1900MB
#P OB98/GEN NMR

erre ene a

0 1
  C      195.919      48.399      57.367
  O      195.172      47.318      57.889
  H      195.272      48.991      56.715
  H      196.763      48.026      56.781
  H      196.281      49.035      58.179
  P      195.971      46.291      58.828
  C      195.672      44.291      57.208
  O      195.396      44.831      58.492
  C      194.681      43.181      56.870
  O      194.666      42.176      57.906
  C      193.242      43.655      56.696
  O      193.026      44.153      55.387
  C      192.473      42.371      56.972
  O      192.467      41.513      55.811
  C      193.292      41.743      58.108
  N      190.859      40.085      62.208
  C      191.055      39.480      60.983
  N      190.498      38.261      60.813
  N      191.728      40.024      60.004
  C      192.180      41.267      60.294
  C      192.049      41.975      61.466
  C      191.348      41.337      62.560
  O      191.211      41.786      63.694
  N      192.662      43.198      61.378
  C      193.131      43.243      60.146
  N      192.859      42.096      59.446
  O      195.384      46.589      60.290
  O      197.456      46.424      58.807
  H      191.947      40.715      56.008
  H      196.110      46.517      60.938
  H      190.359      39.607      62.935
  H      193.679      44.072      59.719
  H      193.288      40.649      58.057
  H      191.428      42.573      57.211
  H      189.746      37.931      61.398
  H      192.980      44.404      57.453
  H      190.581      37.853      59.890
  H      195.036      42.690      55.954
  H      196.688      43.883      57.207
  H      195.606      45.087      56.460
  P      192.206      45.518      55.221
  C      190.632      44.998      53.223
  O      191.800      45.667      53.675
  O      193.333      46.639      55.423
  O      191.093      45.700      56.197
  H      193.237      47.050      56.302
  H      190.492      45.190      52.180
  H      189.783      45.355      53.768
  H      190.740      43.945      53.381

 6  7  8  9  10  11  12  13  14  15  26  29  33  34 0
 6-311+G(2d,p)
 ****
 36  38  39  40  41 0
 6-311+G(2d,p)
 ****
 1  2  3  4  5  16  17  18  19  20  21  22  23  24  25 0
 3-21G
 ****
 27  28  30  31  32  35  37  42  43  44  45  46  47 0
 3-21G
 ****
 48  49 0
 3-21G
 ****


