%nproc=1
%NoSave
%Mem=1900MB
#P OB98/GEN NMR

erre ene a

0 1
  C      728.824     -50.071    -508.329
  O      730.086     -49.842    -507.724
  H      728.811     -51.084    -508.735
  H      728.666     -49.357    -509.141
  H      728.028     -49.975    -507.581
  P      730.303     -48.406    -507.049
  C      728.488     -49.062    -505.292
  O      728.963     -48.096    -506.223
  C      728.989     -48.732    -503.878
  O      728.451     -47.433    -503.484
  C      728.536     -49.739    -502.814
  O      729.533     -49.754    -501.770
  C      727.267     -49.091    -502.291
  O      726.855     -49.684    -501.079
  C      727.720     -47.637    -502.259
  N      724.676     -45.071    -499.052
  C      725.722     -45.888    -498.827
  N      726.492     -46.528    -499.736
  C      726.104     -46.224    -500.986
  C      725.064     -45.399    -501.370
  C      724.321     -44.804    -500.329
  N      723.246     -43.966    -500.551
  N      724.960     -45.342    -502.743
  C      725.935     -46.124    -503.187
  N      726.639     -46.681    -502.156
  O      730.225     -47.396    -508.288
  O      731.568     -48.245    -506.274
  H      726.809     -50.658    -501.169
  H      731.124     -47.200    -508.613
  H      725.974     -46.061    -497.786
  H      726.155     -46.319    -504.228
  H      728.408     -47.444    -501.429
  H      726.441     -49.227    -502.999
  H      728.403     -50.756    -503.197
  H      730.080     -48.629    -503.901
  H      728.861     -50.051    -505.595
  H      727.393     -49.068    -505.303
  H      722.759     -43.595    -499.752
  H      722.967     -43.778    -501.505
  P      729.762     -51.102    -500.925
  C      731.715     -52.178    -502.301
  O      730.349     -52.226    -501.907
  O      728.262     -51.611    -500.694
  O      730.471     -50.938    -499.621
  H      728.215     -52.130    -499.871
  H      731.928     -53.000    -502.952
  H      732.339     -52.239    -501.434
  H      731.906     -51.259    -502.814

 6  7  8  9  10  11  12  13  14  15  25  28  32  33  34  35 0
 6-311+G(2d,p)
 ****
 36  37  40 0
 6-311+G(2d,p)
 ****
 1  2  3  4  5  16  17  18  19  20  21  22  23  24 0
 3-21G
 ****
 26  27  29  30  31  38  39 41  42  43  44  45  46  47  48 0
 3-21G
 ****


