%nproc=1
%NoSave
%Mem=1900MB
#P OB98/GEN NMR

erre ene a

0 1
  C     -215.947     680.973    -893.600
  O     -214.561     681.026    -893.840
  P     -213.990     681.409    -895.290
  C     -212.979     683.631    -894.480
  O     -212.703     682.371    -895.060
  C     -211.654     684.350    -894.180
  O     -211.039     683.835    -892.970
  C     -210.587     684.174    -895.260
  O     -210.840     684.714    -896.520
  C     -209.343     684.620    -894.520
  O     -209.238     686.045    -894.530
  C     -209.628     684.110    -893.080
  N     -208.811     682.936    -892.770
  C     -207.510     683.190    -892.380
  O     -207.003     684.298    -892.320
  N     -206.731     682.066    -892.110
  C     -207.161     680.772    -892.250
  O     -206.405     679.818    -892.020
  C     -208.549     680.570    -892.650
  C     -209.308     681.625    -892.890
  O     -215.014     681.965    -896.220
  O     -213.316     680.041    -895.800
  H     -208.416     686.291    -894.090
  H     -212.592     679.708    -895.210
  H     -205.790     682.221    -891.870
  H     -208.897     679.556    -892.730
  H     -210.350     681.523    -893.190
  H     -209.402     684.900    -892.350
  H     -208.433     684.234    -894.980
  H     -210.482     683.083    -895.420
  H     -211.879     685.426    -894.020
  H     -213.533     683.500    -893.560
  H     -213.603     684.215    -895.160
  P     -209.765     684.748    -897.710
  C     -210.275     682.590    -899.040
  O     -210.383     684.002    -898.980
  O     -208.341     684.447    -897.350
  O     -209.861     686.309    -898.190
  H     -208.964     686.600    -898.490
  H     -210.683     682.249    -900.000
  H     -210.805     682.117    -898.220
  H     -209.219     682.281    -899.020
  H     -216.122     680.702    -892.580
  H     -216.393     680.244    -894.244
  H     -216.379     681.932    -893.793

 3  4  5  6  7  8  9  10  11  12  13  23  28  29  30  31  32 0
 6-311+G(2d,p)
 ****
 33  34 0
 6-311+G(2d,p)
 ****
 1  2  14  15  16  17  18  19  20  21  22  24  25  26  27 0
 3-21G
 ****
 35  36  37  38  39  40  41  42  43  44  45 0
 3-21G
 ****


