%nproc=1
%NoSave
%Mem=1900MB
#P OB98/GEN NMR

erre ene a

0 1
  C      135.457    -215.880    -192.736
  O      134.507    -215.133    -193.488
  P      133.036    -214.942    -192.865
  C      132.307    -217.382    -193.333
  O      132.075    -216.011    -193.589
  C      131.594    -218.266    -194.365
  O      131.990    -219.652    -194.143
  C      130.062    -218.215    -194.302
  O      129.578    -218.386    -195.641
  C      129.703    -219.444    -193.483
  O      128.356    -219.859    -193.697
  C      130.767    -220.423    -193.982
  N      129.117    -225.026    -192.462
  C      128.698    -224.199    -193.445
  N      129.186    -222.981    -193.791
  C      130.220    -222.646    -192.996
  C      130.741    -223.374    -191.941
  C      130.146    -224.621    -191.671
  N      130.582    -225.471    -190.682
  N      131.792    -222.688    -191.345
  C      131.900    -221.568    -192.034
  N      130.984    -221.522    -193.059
  O      132.571    -213.539    -193.486
  O      132.968    -214.923    -191.374
  H      128.191    -220.645    -193.142
  H      132.520    -212.866    -192.782
  H      127.850    -224.557    -194.039
  H      132.602    -220.780    -191.835
  H      130.510    -220.853    -194.964
  H      129.836    -219.230    -192.419
  H      129.665    -217.290    -193.867
  H      131.953    -217.988    -195.361
  H      131.912    -217.626    -192.336
  H      130.195    -226.400    -190.642
  H      131.467    -225.263    -190.211
  H      133.383    -217.590    -193.331
  P      128.317    -217.494    -196.079
  C      126.474    -219.287    -195.698
  O      127.200    -218.501    -196.628
  O      128.837    -216.737    -197.390
  O      127.862    -216.526    -195.023
  H      128.369    -215.886    -197.487
  H      125.459    -219.441    -196.067
  H      126.423    -218.809    -194.712
  H      126.971    -220.258    -195.588
  H      136.382    -215.922    -193.272
  H      135.089    -216.873    -192.581
  H      135.614    -215.407    -191.789

 3  4  5  6  7  8  9  10  11  12  22  25  29  30  31  32 0
 6-311+G(2d,p)
 ****
 33  36  37 0
 6-311+G(2d,p)
 ****
 1  2  13  14  15  16  17  18  19  20  21  23  24  26 0
 3-21G
 ****
 27  28  34  35  38  39  40  41  42  43  44  45  46  47  48 0
 3-21G
 ****


