%nproc=1
%NoSave
%Mem=1900MB
#P OB98/GEN NMR

erre ene a

0 1
  C     -211.222     234.201     -19.347
  O     -211.980     235.313     -18.889
  P     -211.190     236.686     -18.622
  C     -212.122     236.744     -16.199
  O     -211.997     237.423     -17.444
  C     -213.056     237.500     -15.267
  O     -212.548     238.826     -15.031
  C     -214.469     237.693     -15.805
  O     -215.274     236.536     -15.621
  C     -214.955     238.849     -14.937
  O     -215.405     238.341     -13.668
  C     -213.684     239.687     -14.758
  N     -214.805     244.599     -15.289
  C     -215.018     243.754     -14.216
  N     -215.588     244.299     -13.123
  N     -214.703     242.480     -14.226
  C     -214.104     242.082     -15.366
  C     -213.838     242.828     -16.501
  C     -214.239     244.218     -16.505
  O     -214.135     245.001     -17.441
  N     -213.202     242.074     -17.453
  C     -213.047     240.891     -16.894
  N     -213.606     240.837     -15.638
  O     -211.539     237.561     -19.914
  O     -209.719     236.548     -18.429
  H     -216.348     238.103     -13.772
  H     -210.838     238.225     -20.066
  H     -215.049     245.569     -15.226
  H     -212.546     240.052     -17.356
  H     -213.573     240.032     -13.726
  H     -215.796     239.391     -15.380
  H     -215.734     245.292     -13.015
  H     -214.450     238.005     -16.855
  H     -215.720     243.701     -12.316
  H     -213.080     236.971     -14.303
  H     -211.131     236.666     -15.730
  H     -212.499     235.733     -16.383
  P     -216.567     236.401     -16.560
  C     -218.196     236.090     -14.558
  O     -217.607     235.528     -15.724
  O     -216.073     235.421     -17.721
  O     -217.072     237.702     -17.098
  H     -216.589     235.573     -18.541
  H     -218.392     237.159     -14.687
  H     -217.529     235.936     -13.707
  H     -219.140     235.586     -14.368
  H     -211.869     233.360     -19.482
  H     -210.470     233.960     -18.625
  H     -210.756     234.446     -20.279

 3  4  5  6  7  8  9  10  11  12  23  26  30  31  33  0
 6-311+G(2d,p)
 ****
 35  36  37  38 0
 6-311+G(2d,p)
 ****
 1  2  13  14  15  16  17  18  19  20  21  22  24  25  27  28  29 0
 3-21G
 ****
 32  34  39  40  41  42  43  44  45  46  47  48  49 0
 3-21G
 ****


