%nproc=1
%NoSave
%Mem=1900MB
#P OB98/GEN NMR

erre ene a

0 1
  C      269.842      54.200     -60.939
  O      270.538      54.282     -59.711
  H      269.530      55.197     -61.267
  H      270.507      53.770     -61.691
  H      268.965      53.556     -60.831
  P      269.761      54.990     -58.498
  C      269.610      54.624     -55.937
  O      270.183      54.203     -57.164
  C      268.852      53.473     -55.288
  O      267.720      53.097     -56.099
  C      269.662      52.191     -55.112
  O      270.529      52.263     -53.985
  C      268.547      51.180     -54.896
  O      268.096      51.239     -53.530
  C      267.445      51.696     -55.836
  N      266.173      47.286     -58.144
  C      266.121      47.675     -56.848
  N      266.486      48.854     -56.307
  C      266.933      49.699     -57.256
  C      267.043      49.444     -58.608
  C      266.645      48.171     -59.055
  N      266.719      47.781     -60.371
  N      267.526      50.551     -59.272
  C      267.706      51.459     -58.338
  N      267.369      50.989     -57.097
  O      268.237      54.546     -58.721
  O      269.895      56.476     -58.435
  H      267.454      50.514     -53.417
  H      267.650      55.283     -58.458
  H      265.730      46.937     -56.152
  H      268.077      52.463     -58.511
  H      266.458      51.651     -55.359
  H      268.855      50.153     -55.097
  H      270.210      51.941     -56.025
  H      268.467      53.825     -54.320
  H      268.916      55.449     -56.124
  H      266.240      46.943     -60.655
  H      267.066      48.455     -61.051
  H      270.411      54.975     -55.276
  P      271.729      51.199     -53.913
  C      274.026      51.150     -52.701
  O      272.757      51.784     -52.827
  O      272.496      51.414     -55.300
  O      271.307      49.781     -53.722
  H      272.971      50.600     -55.549
  H      274.598      51.645     -51.945
  H      274.546      51.204     -53.635
  H      273.887      50.125     -52.429

 6  7  8  9  10  11  12  13  14  15  25  28  32  33  34  35 0
 6-311+G(2d,p)
 ****
 36  39  40 0
 6-311+G(2d,p)
 ****
 1  2  3  4  5  16  17  18  19  20  21  22  23  24 0
 3-21G
 ****
 26  27  29  30  31  37  38  41  42  43  44  45  46  47  48 0
 3-21G
 ****


