%nproc=1
%NoSave
%Mem=1900MB
#P OB98/GEN NMR

erre ene a

0 1
  C      571.561    -688.240     413.488
  O      572.017    -689.573     413.552
  H      570.487    -688.246     413.285
  H      572.066    -687.710     412.678
  H      571.737    -687.726     414.437
  P      573.537    -689.813     414.002
  C      572.935    -691.195     416.112
  O      573.523    -690.012     415.598
  C      572.978    -691.183     417.643
  O      572.342    -689.972     418.123
  C      572.264    -692.378     418.285
  O      573.008    -692.789     419.431
  C      570.928    -691.799     418.729
  O      570.349    -692.527     419.811
  C      571.315    -690.346     419.055
  N      570.154    -689.464     418.986
  C      569.441    -689.263     420.167
  O      569.791    -689.829     421.205
  N      568.320    -688.475     420.144
  C      567.896    -687.999     419.011
  N      566.756    -687.253     419.048
  C      568.578    -688.241     417.725
  C      569.693    -688.970     417.785
  O      574.211    -688.374     413.818
  O      574.266    -690.880     413.253
  H      570.942    -692.437     420.591
  H      575.154    -688.449     413.572
  H      568.170    -687.848     416.806
  H      570.258    -689.203     416.891
  H      571.743    -690.286     420.066
  H      570.220    -691.825     417.890
  H      572.142    -693.223     417.606
  H      574.026    -691.139     417.961
  H      566.308    -687.122     419.946
  H      573.501    -692.062     415.751
  H      566.316    -686.872     418.225
  H      571.900    -691.277     415.763
  P      574.279    -693.737     419.170
  C      576.071    -691.966     419.788
  O      575.522    -692.805     418.782
  O      573.909    -694.471     417.796
  O      574.530    -694.720     420.266
  H      573.693    -695.403     417.961
  H      576.888    -691.408     419.381
  H      576.420    -692.566     420.602
  H      575.319    -691.291     420.139

 6  7  8  9  10  11  12  13  14  15  16  26  30  31  32  33  35 0
 6-311+G(2d,p)
 ****
 37  38 0
 6-311+G(2d,p)
 ****
 1  2  3  4  5  17  18  19  20  21  22  23  24  25 0
 3-21G
 ****
 27  28  29  34  36  39  40  41  42  43  44  45  46 0
 3-21G
 ****


