%nproc=1
%NoSave
%Mem=1900MB
#P OB98/GEN NMR

erre ene a

0 1
  C      100.232     336.335     297.073
  O       99.855     336.868     295.820
  H      100.383     337.160     297.775
  H      101.171     335.786     296.973
  H       99.457     335.676     297.470
  P       99.292     335.877     294.694
  C      101.323     336.645     293.304
  O      100.526     335.545     293.722
  C      102.472     336.175     292.405
  O      103.319     335.265     293.168
  C      102.013     335.421     291.146
  O      102.981     335.675     290.118
  C      102.091     333.978     291.601
  O      102.101     333.089     290.505
  C      103.364     334.015     292.451
  N      103.475     332.870     293.350
  C      104.466     331.941     293.056
  O      105.211     332.033     292.081
  N      104.554     330.867     293.899
  C      103.720     330.609     294.945
  O      103.825     329.611     295.651
  C      102.659     331.601     295.181
  C      102.587     332.671     294.387
  O       98.053     336.327     293.996
  O       99.073     334.490     295.460
  H      102.269     332.175     290.813
  H       98.336     333.993     295.054
  H      105.275     330.189     293.706
  H      101.975     331.417     296.000
  H      101.816     333.419     294.541
  H      104.259     334.028     291.811
  H      101.227     333.722     292.223
  H      101.014     335.710     290.811
  H      103.093     337.040     292.143
  H      101.725     337.131     294.197
  H      100.700     337.365     292.759
  P      102.714     336.721     288.937
  C      101.813     335.278     286.997
  O      101.487     336.188     288.043
  O      103.925     337.080     288.145
  O      102.107     338.014     289.661
  H      102.321     338.812     289.142
  H      100.921     334.997     286.477
  H      102.273     334.406     287.413
  H      102.491     335.747     286.315

 6  7  8  9  10  11  12  13  14  15  16  26  31  32  33  34  35 0
 6-311+G(2d,p)
 ****
 36  37 0
 6-311+G(2d,p)
 ****
 1  2  3  4  5  17  18  19  20  21  22  23  24  25 0
 3-21G
 ****
 27  28  29  30  38  39  40  41  42  43  44  45 0
 3-21G
 ****


