%nproc=1
%NoSave
%Mem=1900MB
#P OB98/GEN NMR

erre ene a

0 1
  C      275.280      22.077     377.550
  O      276.548      22.531     377.139
  H      274.964      21.272     376.878
  H      274.544      22.883     377.484
  H      275.318      21.686     378.569
  P      277.240      23.747     377.927
  C      279.055      22.185     378.855
  O      277.990      23.068     379.182
  C      280.405      22.772     379.271
  O      280.394      23.047     380.699
  C      281.596      21.845     378.986
  O      282.647      22.586     378.358
  C      282.043      21.403     380.371
  O      283.410      21.005     380.415
  C      281.681      22.639     381.201
  N      281.655      22.354     382.627
  C      282.628      22.999     383.400
  O      283.440      23.761     382.871
  N      282.696      22.724     384.743
  C      281.893      21.846     385.260
  N      282.032      21.599     386.588
  C      280.871      21.124     384.474
  C      280.805      21.426     383.179
  O      276.319      24.868     378.273
  O      278.459      24.201     376.993
  H      283.564      20.340     379.708
  H      278.704      25.128     377.215
  H      280.232      20.396     384.952
  H      280.088      20.946     382.522
  H      282.393      23.455     381.016
  H      281.434      20.548     380.691
  H      281.339      20.993     378.359
  H      280.532      23.742     378.773
  H      282.752      22.109     387.086
  H      279.035      21.998     377.774
  H      281.483      20.919     387.095
  H      278.897      21.241     379.385
  P      282.624      22.626     376.753
  C      281.542      24.963     376.435
  O      281.398      23.558     376.299
  O      282.156      21.147     376.353
  O      283.945      22.965     376.150
  H      282.901      20.663     375.948
  H      280.651      25.447     376.094
  H      282.374      25.295     375.850
  H      281.710      25.206     377.463

 6  7  8  9  10  11  12  13  14  15  16  26  30  31  32  33  35 0
 6-311+G(2d,p)
 ****
 37  38 0
 6-311+G(2d,p)
 ****
 1  2  3  4  5  17  18  19  20  21  22  23  24  25 0
 3-21G
 ****
 27  28  29  34  36  39  40  41  42  43  44  45  46 0
 3-21G
 ****


