%nproc=1
%NoSave
%Mem=1900MB
#P OB98/GEN NMR

erre ene a

0 1
  C     -624.834     124.846    -135.660
  O     -624.147     124.361    -136.795
  P     -624.317     122.836    -137.271
  C     -625.775     123.522    -139.275
  O     -625.704     122.757    -138.076
  C     -625.975     122.613    -140.486
  O     -626.145     123.438    -141.665
  C     -624.802     121.674    -140.742
  O     -625.299     120.429    -141.229
  C     -624.023     122.347    -141.865
  O     -623.274     121.388    -142.630
  C     -625.149     123.042    -142.630
  N     -621.615     124.980    -145.811
  C     -621.795     123.734    -145.325
  N     -622.739     123.298    -144.467
  C     -623.592     124.291    -144.151
  C     -623.529     125.614    -144.566
  C     -622.482     125.952    -145.431
  N     -622.303     127.226    -145.940
  N     -624.556     126.352    -144.002
  C     -625.230     125.485    -143.280
  N     -624.690     124.226    -143.339
  O     -624.175     121.827    -136.184
  O     -623.219     122.644    -138.417
  H     -622.794     120.819    -141.986
  H     -622.824     121.752    -138.353
  H     -621.087     122.992    -145.681
  H     -626.098     125.715    -142.683
  H     -625.624     122.366    -143.364
  H     -623.310     123.066    -141.447
  H     -624.185     121.511    -139.852
  H     -626.901     122.049    -140.349
  H     -624.833     124.074    -139.386
  H     -621.599     127.346    -146.648
  H     -623.044     127.902    -145.802
  H     -626.589     124.252    -139.197
  P     -624.310     119.168    -141.069
  C     -626.040     118.243    -139.351
  O     -624.689     118.531    -139.649
  O     -622.879     119.533    -141.292
  O     -624.915     118.153    -142.155
  H     -625.874     118.339    -142.327
  H     -626.096     117.854    -138.325
  H     -626.418     117.474    -140.032
  H     -626.649     119.151    -139.426
  H     -624.590     125.877    -135.509
  H     -624.544     124.281    -134.799
  H     -625.889     124.747    -135.812

 3  4  5  6  7  8  9  10  11  12  22  25  29  30  31  32 0
 6-311+G(2d,p)
 ****
 33  36  37 0
 6-311+G(2d,p)
 ****
 1  2  13  14  15  16  17  18  19  20  21  23  24  26 0
 3-21G
 ****
 27  28  34  35  38  39  40  41  42  43  44  45  46  47  48 0
 3-21G
 ****


