%nproc=1
%NoSave
%Mem=1900MB
#P OB98/GEN NMR

erre ene a

0 1
  C      183.920     293.760     280.906
  O      184.262     292.390     280.972
  H      183.237     293.939     280.070
  H      183.418     294.046     281.836
  H      184.821     294.370     280.788
  P      184.978     291.761     279.683
  C      187.100     293.065     280.439
  O      186.219     292.736     279.376
  C      188.272     293.871     279.891
  O      189.044     294.431     280.979
  C      189.254     293.047     279.069
  O      188.825     292.864     277.729
  C      190.490     293.928     279.136
  O      190.344     295.042     278.236
  C      190.444     294.413     280.593
  N      194.809     293.837     283.205
  C      194.356     294.834     282.417
  N      193.171     294.921     281.775
  C      192.418     293.838     282.019
  C      192.746     292.744     282.805
  C      194.011     292.764     283.415
  N      194.490     291.733     284.192
  N      191.720     291.818     282.798
  C      190.788     292.351     282.034
  N      191.176     293.557     281.514
  O      183.964     292.084     278.487
  O      185.335     290.315     279.774
  H      190.510     294.706     277.337
  H      184.189     291.555     277.699
  H      195.033     295.672     282.283
  H      189.828     291.904     281.820
  H      190.836     295.430     280.714
  H      191.402     293.400     278.850
  H      189.474     292.085     279.549
  H      187.871     294.707     279.306
  H      187.469     292.140     280.895
  H      195.462     291.774     284.461
  H      193.967     290.871     284.233
  H      186.561     293.645     281.193
  P      189.788     292.031     276.749
  C      189.345     289.710     277.827
  O      190.282     290.752     277.582
  O      191.096     292.946     276.669
  O      189.209     291.746     275.402
  H      191.525     292.865     275.796
  H      189.816     288.931     278.389
  H      188.998     289.316     276.895
  H      188.516     290.099     278.381

 6  7  8  9  10  11  12  13  14  15  25  28  32  33  34  35 0
 6-311+G(2d,p)
 ****
 36  39  40 0
 6-311+G(2d,p)
 ****
 1  2  3  4  5  16  17  18  19  20  21  22  23  24 0
 3-21G
 ****
 26  27  29  30  31  37  38  41  42  43  44  45  46  47 0
 3-21G
 ****
 48 0
 3-21G
 ****


