%nproc=1
%NoSave
%Mem=1900MB
#P OB98/GEN NMR

erre ene a

0 1
  C      -77.489    -537.720     108.135
  O      -77.100    -537.177     106.892
  H      -77.414    -538.809     108.109
  H      -76.822    -537.337     108.913
  H      -78.515    -537.422     108.373
  P      -77.937    -537.642     105.604
  C      -79.871    -535.990     106.103
  O      -78.874    -536.407     105.177
  C      -80.387    -534.606     105.719
  O      -79.358    -533.628     106.033
  C      -80.761    -534.443     104.238
  O      -82.129    -534.042     104.111
  C      -79.878    -533.309     103.742
  O      -80.553    -532.411     102.861
  C      -79.447    -532.612     105.028
  N      -77.166    -528.523     103.002
  C      -78.452    -528.750     103.351
  N      -78.976    -529.817     103.984
  C      -78.017    -530.710     104.290
  C      -76.661    -530.609     104.017
  C      -76.242    -529.461     103.327
  N      -74.940    -529.260     102.925
  N      -75.990    -531.731     104.477
  C      -76.927    -532.509     104.969
  N      -78.170    -531.943     104.862
  O      -78.969    -538.712     106.204
  O      -77.119    -538.224     104.498
  H      -79.891    -531.755     102.566
  H      -78.967    -539.512     105.651
  H      -79.156    -527.969     103.078
  H      -76.774    -533.502     105.370
  H      -80.183    -531.869     105.361
  H      -79.016    -533.735     103.212
  H      -80.588    -535.360     103.661
  H      -81.252    -534.372     106.353
  H      -79.443    -535.945     107.110
  H      -74.751    -528.466     102.333
  H      -74.266    -529.999     103.067
  H      -80.685    -536.720     106.101
  P      -82.940    -534.623     102.843
  C      -85.087    -535.100     104.237
  O      -84.501    -534.413     103.143
  O      -82.748    -536.204     102.996
  O      -82.449    -534.121     101.529
  H      -82.810    -536.636     102.120
  H      -86.126    -534.852     104.298
  H      -84.597    -534.811     105.143
  H      -84.980    -536.155     104.094

 6  7  8  9  10  11  12  13  14  15  25  28  32  33  34  35 0
 6-311+G(2d,p)
 ****
 36  39  40 0
 6-311+G(2d,p)
 ****
 1  2  3  4  5  16  17  18  19  20  21  22  23  24 0
 3-21G
 ****
 26  27  29  30  31  37  38  41  42  43  44  45  46  47  48 0
 3-21G
 ****


