%nproc=1
%NoSave
%Mem=1900MB
#P OB98/GEN NMR

erre ene a

0 1
  C      680.202    -898.162    -733.290
  O      679.561    -898.172    -734.544
  H      680.170    -899.172    -732.869
  H      679.699    -897.472    -732.602
  H      681.256    -897.872    -733.406
  P      679.475    -896.772    -735.321
  C      677.642    -895.982    -733.685
  O      677.977    -896.252    -735.040
  C      676.169    -895.602    -733.557
  O      675.987    -894.282    -734.118
  C      675.221    -896.562    -734.289
  O      674.032    -896.722    -733.511
  C      674.904    -895.822    -735.578
  O      673.632    -896.222    -736.135
  C      674.946    -894.362    -735.126
  N      674.093    -889.672    -736.969
  C      673.785    -890.252    -735.792
  N      674.072    -891.522    -735.371
  C      674.786    -892.162    -736.311
  C      675.176    -891.732    -737.547
  C      674.792    -890.412    -737.884
  N      675.083    -889.832    -739.093
  N      675.863    -892.712    -738.246
  C      675.878    -893.742    -737.406
  N      675.239    -893.462    -736.229
  O      679.878    -896.792    -736.758
  O      680.349    -895.822    -734.381
  H      673.480    -895.722    -736.944
  H      680.151    -895.962    -733.426
  H      673.241    -889.632    -735.090
  H      676.346    -894.702    -737.611
  H      674.002    -894.022    -734.667
  H      675.689    -896.022    -736.328
  H      675.680    -897.532    -734.479
  H      675.913    -895.522    -732.492
  H      678.271    -895.162    -733.286
  H      674.781    -888.872    -739.249
  H      675.624    -890.342    -739.789
  H      677.846    -896.882    -733.092
  P      673.901    -898.002    -732.558
  C      672.552    -899.332    -734.315
  O      672.590    -898.822    -732.976
  O      674.074    -897.752    -731.097
  O      675.083    -898.942    -733.109
  H      675.494    -899.422    -732.345
  H      671.633    -899.857    -734.471
  H      673.374    -900.000    -734.466
  H      672.621    -898.520    -735.008

 6  7  8  9  10  11  12  13  14  15  25  28  32  33  34  35 0
 6-311+G(2d,p)
 ****
 36  39  40 0
 6-311+G(2d,p)
 ****
 1  2  3  4  5  16  17  18  19  20  21  22  23  24 0
 3-21G
 ****
 26  27  29  30  31  37  38  41  42  43  44  45  46  47 0
 3-21G
 ****
 48 0
 3-21G
 ****


