%nproc=1
%NoSave
%Mem=1900MB
#P OB98/GEN NMR

erre ene a

0 1
  C      -15.481       2.340    -160.734
  O      -15.040       0.997    -160.785
  H      -16.224       2.437    -159.938
  H      -15.944       2.620    -161.685
  H      -14.640       3.006    -160.519
  P      -13.984       0.638    -161.939
  C      -15.904      -0.324    -163.391
  O      -14.816       0.586    -163.311
  C      -16.517      -0.301    -164.790
  O      -17.155       0.967    -165.048
  C      -15.516      -0.530    -165.919
  O      -15.284      -1.915    -166.117
  C      -16.241       0.119    -167.091
  O      -17.248      -0.765    -167.630
  C      -16.891       1.343    -166.428
  N      -16.373       5.859    -168.630
  C      -17.264       4.835    -168.894
  N      -18.131       5.031    -169.913
  N      -17.297       3.712    -168.226
  C      -16.338       3.631    -167.272
  C      -15.399       4.571    -166.918
  C      -15.408       5.832    -167.630
  O      -14.700       6.807    -167.391
  N      -14.609       4.123    -165.888
  C      -15.051       2.903    -165.646
  N      -16.094       2.556    -166.464
  O      -13.636      -0.902    -161.661
  O      -12.748       1.473    -161.961
  H      -17.790      -0.278    -168.272
  H      -12.689      -1.047    -161.844
  H      -16.414       6.715    -169.158
  H      -14.654       2.237    -164.888
  H      -17.855       1.590    -166.887
  H      -15.557       0.343    -167.911
  H      -17.965       5.723    -170.630
  H      -14.581       0.009    -165.729
  H      -18.731       4.251    -170.149
  H      -17.306      -1.068    -164.814
  H      -16.665      -0.032    -162.658
  H      -15.550      -1.332    -163.159
  P      -13.804      -2.382    -166.523
  C      -14.696      -3.062    -168.867
  O      -13.701      -2.365    -168.127
  O      -13.812      -3.944    -166.161
  O      -12.706      -1.673    -165.804
  H      -13.298      -4.095    -165.343
  H      -14.497      -2.962    -169.914
  H      -15.659      -2.651    -168.646
  H      -14.680      -4.098    -168.598

 6  7  8  9  10  11  12  13  14  15  26  29  33  34 0
 6-311+G(2d,p)
 ****
 36  38  39  40  41 0
 6-311+G(2d,p)
 ****
 1  2  3  4  5  16  17  18  19  20  21  22  23  24  25 0
 3-21G
 ****
 27  28  30  31  32  35  37  42  43  44  45  46  47 0
 3-21G
 ****
 48  49 0
 3-21G
 ****


