%nproc=1
%NoSave
%Mem=1900MB
#P OB98/GEN NMR

erre ene a

0 1
  C      224.690     605.395     200.921
  O      225.323     605.243     202.175
  H      223.826     604.732     200.885
  H      225.372     605.128     200.111
  H      224.343     606.428     200.789
  P      226.667     606.069     202.463
  C      225.782     607.424     204.472
  O      226.680     606.410     204.031
  C      225.081     606.985     205.764
  O      224.086     605.992     205.412
  C      226.054     606.353     206.774
  O      225.987     606.952     208.067
  C      225.745     604.860     206.669
  O      226.042     604.117     207.831
  C      224.267     604.840     206.255
  N      223.870     603.620     205.557
  C      223.514     602.532     206.340
  O      223.486     602.510     207.571
  N      223.165     601.391     205.650
  C      223.135     601.257     204.294
  O      222.811     600.214     203.729
  C      223.543     602.439     203.522
  C      223.888     603.552     204.179
  O      226.915     607.238     201.571
  O      227.828     604.973     202.327
  H      225.897     603.170     207.625
  H      228.275     605.072     201.466
  H      222.893     600.592     206.205
  H      223.552     602.358     202.446
  H      224.191     604.442     203.642
  H      223.627     604.948     207.134
  H      226.352     604.443     205.853
  H      227.094     606.526     206.474
  H      224.557     607.845     206.191
  H      225.041     607.592     203.678
  H      226.330     608.357     204.647
  P      226.941     606.581     209.294
  C      227.974     608.974     209.596
  O      227.199     607.909     210.146
  O      228.123     605.743     208.952
  O      225.981     605.702     210.249
  H      226.555     605.038     210.691
  H      228.038     609.772     210.306
  H      227.508     609.329     208.701
  H      228.958     608.619     209.369

 6  7  8  9  10  11  12  13  14  15  16  26  31  32  33  34  35 0
 6-311+G(2d,p)
 ****
 36  37 0
 6-311+G(2d,p)
 ****
 1  2  3  4  5  17  18  19  20  21  22  23  24  25 0
 3-21G
 ****
 27  28  29  30  38  39  40  41  42  43  44  45 0
 3-21G
 ****


