%nproc=1
%NoSave
%Mem=1900MB
#P OB98/GEN NMR

erre ene a

0 1
  C      -97.917    -938.849    -174.104
  O      -98.757    -937.854    -174.654
  H      -97.139    -939.090    -174.832
  H      -98.494    -939.759    -173.890
  H      -97.441    -938.488    -173.185
  P      -99.960    -937.345    -173.728
  C      -99.773    -934.830    -174.404
  O      -99.637    -935.820    -173.379
  C     -100.497    -933.592    -173.866
  O     -101.898    -933.930    -173.649
  C      -99.949    -933.083    -172.520
  O     -100.170    -931.662    -172.455
  C     -100.873    -933.781    -171.522
  O     -100.759    -933.224    -170.238
  C     -102.200    -933.640    -172.259
  N     -106.080    -934.157    -168.970
  C     -105.294    -933.109    -169.276
  N     -104.288    -933.031    -170.164
  C     -104.136    -934.214    -170.812
  C     -104.887    -935.364    -170.640
  C     -105.900    -935.313    -169.660
  N     -106.703    -936.388    -169.358
  N     -104.444    -936.366    -171.474
  C     -103.453    -935.825    -172.154
  N     -103.228    -934.528    -171.772
  O      -99.700    -938.109    -172.336
  O     -101.329    -937.589    -174.259
  H     -101.443    -933.602    -169.640
  H     -100.242    -938.917    -172.307
  H     -105.481    -932.189    -168.711
  H     -102.871    -936.329    -172.914
  H     -102.577    -932.606    -172.209
  H     -100.591    -934.851    -171.432
  H      -98.881    -933.297    -172.363
  H     -100.484    -932.806    -174.624
  H     -100.335    -935.261    -175.227
  H      -98.763    -934.553    -174.757
  H     -107.394    -936.276    -168.628
  H     -106.564    -937.264    -169.831
  P      -98.970    -930.657    -172.786
  C     -100.226    -929.829    -174.929
  O      -99.015    -930.306    -174.353
  O      -97.694    -931.634    -172.714
  O      -98.811    -929.493    -171.862
  H      -96.898    -931.100    -172.470
  H     -100.077    -929.647    -175.973
  H     -100.516    -928.919    -174.446
  H     -100.995    -930.562    -174.801

 6  7  8  9  10  11  12  13  14  15  25  28  32  33  34  35 0
 6-311+G(2d,p)
 ****
 36  37  40 0
 6-311+G(2d,p)
 ****
 1  2  3  4  5  16  17  18  19  20  21  22  23  24 0
 3-21G
 ****
 26  27  29  30  31  38  39 41  42  43  44  45  46  47  48 0
 3-21G
 ****


