%nproc=1
%NoSave
%Mem=1900MB
#P OB98/GEN NMR

erre ene a

0 1
  C       66.595    -528.062     128.580
  O       65.692    -528.900     127.881
  P       64.170    -528.935     128.389
  C       63.125    -528.970     130.770
  O       64.237    -529.307     129.945
  C       63.538    -528.951     132.237
  O       64.764    -528.217     132.394
  C       62.535    -528.272     133.152
  O       61.441    -529.134     133.415
  C       63.393    -527.974     134.376
  O       63.428    -529.104     135.270
  C       64.784    -527.720     133.755
  N       65.171    -526.322     133.805
  C       66.137    -525.990     134.767
  O       66.582    -526.858     135.518
  N       66.534    -524.681     134.882
  C       66.011    -523.782     134.106
  N       66.446    -522.502     134.256
  C       64.978    -524.085     133.090
  C       64.605    -525.358     132.999
  O       63.591    -530.262     127.711
  O       63.369    -527.721     128.043
  H       63.683    -529.869     134.714
  H       62.622    -530.195     127.589
  H       64.578    -523.301     132.471
  H       63.852    -525.672     132.285
  H       65.552    -528.304     134.280
  H       63.010    -527.128     134.949
  H       62.181    -527.334     132.709
  H       63.720    -529.989     132.558
  H       67.147    -522.323     134.963
  H       62.339    -529.720     130.636
  H       66.119    -521.734     133.685
  H       62.734    -527.995     130.461
  P       60.102    -528.480     134.000
  C       59.968    -526.894     136.011
  O       60.445    -528.135     135.526
  O       59.140    -529.754     134.147
  O       59.472    -527.388     133.199
  H       58.246    -529.465     134.411
  H       60.130    -526.854     137.092
  H       58.898    -526.790     135.811
  H       60.519    -526.073     135.542
  H       67.566    -528.136     128.137
  H       66.645    -528.368     129.604
  H       66.255    -527.049     128.527

 3  4  5  6  7  8  9  10  11  12  13  21  23  27  28  29  30  32 0
 6-311+G(2d,p)
 ****
 34  35 0
 6-311+G(2d,p)
 ****
 1  2  14  15  16  17  18  19  20  22  24  25  26 0
 3-21G
 ****
 31  33  36  37  38  39  40  41  42  43  44  45  46 0
 3-21G
 ****


