%nproc=1
%NoSave
%Mem=1900MB
#P OB98/GEN NMR

erre ene a

0 1
  C       74.391     -41.202      27.629
  O       73.286     -41.880      28.199
  P       71.810     -41.418      27.786
  C       71.720     -39.389      29.410
  O       71.174     -40.645      29.040
  C       70.785     -38.667      30.382
  O       71.413     -37.425      30.822
  C       69.420     -38.301      29.780
  O       68.447     -38.391      30.830
  C       69.614     -36.848      29.390
  O       68.392     -36.147      29.221
  C       70.470     -36.365      30.565
  N       71.144     -35.097      30.294
  C       70.343     -33.983      30.066
  O       69.114     -34.005      30.079
  N       71.006     -32.826      29.755
  C       72.350     -32.696      29.564
  O       72.870     -31.658      29.171
  C       73.147     -33.906      29.818
  C       72.519     -35.032      30.166
  O       70.995     -42.794      27.735
  O       71.728     -40.672      26.497
  H       68.595     -35.194      29.242
  H       70.899     -43.098      26.813
  H       70.441     -32.006      29.598
  H       74.219     -33.833      29.697
  H       73.080     -35.944      30.339
  H       69.851     -36.262      31.466
  H       70.166     -36.795      28.445
  H       69.130     -38.932      28.935
  H       70.653     -39.295      31.271
  H       71.850     -38.778      28.516
  H       72.707     -39.537      29.862
  P       67.496     -39.686      30.863
  C       65.578     -38.645      29.426
  O       65.997     -39.160      30.671
  O       67.574     -40.073      32.416
  O       67.941     -40.781      29.951
  H       67.510     -39.298      32.998
  H       66.063     -39.161      28.593
  H       65.815     -37.580      29.376
  H       64.496     -38.771      29.337
  H       75.300     -41.625      28.002
  H       74.347     -40.165      27.890
  H       74.361     -41.304      26.564

 3  4  5  6  7  8  9  10  11  12  13  23  28  29  30  31  32 0
 6-311+G(2d,p)
 ****
 33  34 0
 6-311+G(2d,p)
 ****
 1  2  14  15  16  17  18  19  20  21  22  24  25  26 0
 3-21G
 ****
 27  35  36  37  38  39  40  41  42  43  44  45 0
 3-21G
 ****


