%nproc=1
%NoSave
%Mem=1900MB
#P OB98/GEN NMR

erre ene a

0 1
  C      273.369     160.304    -668.330
  O      274.087     159.126    -668.693
  P      275.527     158.877    -668.038
  C      276.979     159.669    -670.102
  O      276.615     159.802    -668.747
  C      277.101     161.067    -670.736
  O      278.247     161.759    -670.202
  C      277.263     161.033    -672.248
  O      276.017     160.981    -672.923
  C      278.042     162.303    -672.513
  O      277.170     163.446    -672.464
  C      279.015     162.318    -671.308
  N      280.286     161.570    -671.426
  C      281.229     161.951    -672.374
  O      281.082     162.890    -673.153
  N      282.381     161.216    -672.408
  C      282.762     160.270    -671.502
  O      283.835     159.684    -671.545
  C      281.796     160.009    -670.429
  C      280.623     160.641    -670.448
  O      275.908     157.400    -668.523
  O      275.559     158.998    -666.550
  H      277.701     164.227    -672.708
  H      275.970     156.794    -667.760
  H      283.045     161.433    -673.137
  H      282.075     159.298    -669.662
  H      279.900     160.454    -669.656
  H      279.278     163.346    -671.037
  H      278.484     162.299    -673.509
  H      277.894     160.185    -672.538
  H      276.206     161.646    -670.473
  H      276.235     159.079    -670.647
  H      277.931     159.135    -670.180
  P      275.514     159.608    -673.570
  C      276.441     159.980    -675.929
  O      276.575     159.254    -674.719
  O      274.080     159.565    -673.979
  O      275.853     158.515    -672.438
  H      275.061     158.334    -671.886
  H      277.306     159.764    -676.564
  H      276.404     161.056    -675.733
  H      275.533     159.664    -676.452
  H      272.433     160.325    -668.848
  H      273.943     161.167    -668.595
  H      273.193     160.303    -667.275

 3  4  5  6  7  8  9  10  11  12  13  23  28  29  30  31  32 0
 6-311+G(2d,p)
 ****
 33  34 0
 6-311+G(2d,p)
 ****
 1  2  14  15  16  17  18  19  20  21  22  24  25  26  27 0
 3-21G
 ****
 35  36  37  38  39  40  41  42  43  44  45 0
 3-21G
 ****


