%nproc=1
%NoSave
%Mem=1900MB
#P OB98/GEN NMR

erre ene a

0 1
  C       64.098     579.295     -76.076
  O       63.709     578.548     -77.212
  H       64.088     578.637     -75.204
  H       63.398     580.116     -75.907
  H       65.110     579.688     -76.211
  P       63.636     579.347     -78.603
  C       65.656     578.185     -79.744
  O       65.137     579.378     -79.176
  C       65.607     578.255     -81.266
  O       66.139     579.514     -81.738
  C       66.396     577.158     -81.973
  O       65.642     575.960     -82.058
  C       66.639     577.796     -83.331
  O       65.487     577.670     -84.190
  C       66.885     579.266     -82.959
  N       71.278     580.087     -85.308
  C       70.024     579.826     -85.826
  N       69.942     579.719     -87.170
  N       68.951     579.676     -85.095
  C       69.194     579.779     -83.768
  C       70.386     580.050     -83.132
  C       71.557     580.245     -83.958
  O       72.682     580.541     -83.566
  N       70.225     580.092     -81.772
  C       68.949     579.812     -81.583
  N       68.286     579.596     -82.762
  O       63.386     580.863     -78.151
  O       62.591     578.878     -79.556
  H       64.715     578.061     -83.749
  H       62.865     581.319     -78.837
  H       72.061     580.210     -85.926
  H       68.465     579.751     -80.618
  H       66.501     579.953     -83.719
  H       67.471     577.323     -83.856
  H       70.750     579.492     -87.734
  H       67.357     576.987     -81.473
  H       69.030     579.504     -87.556
  H       64.551     578.218     -81.563
  H       65.052     577.336     -79.403
  H       66.689     578.046     -79.406
  P       66.441     574.570     -81.963
  C       65.857     574.044     -79.482
  O       66.863     574.394     -80.425
  O       67.830     574.890     -82.690
  O       65.741     573.405     -82.578
  H       68.282     574.059     -82.932
  H       66.293     573.965     -78.508
  H       65.423     573.105     -79.756
  H       65.099     574.799     -79.473

 6  7  8  9  10  11  12  13  14  15  26  29  33  34 0
 6-311+G(2d,p)
 ****
 36  38  39  40  41 0
 6-311+G(2d,p)
 ****
 1  2  3  4  5  16  17  18  19  20  21  22  23  24  25 0
 3-21G
 ****
 27  28  30  31  32  35  37  42  43  44  45  46  47 0
 3-21G
 ****
 48  49 0
 3-21G
 ****


