%nproc=1
%NoSave
%Mem=1900MB
#P OB98/GEN NMR

erre ene a

0 1
  C     -193.838    -131.900    -172.824
  O     -192.862    -132.148    -173.817
  H     -193.613    -132.513    -171.947
  H     -194.829    -132.168    -173.196
  H     -193.826    -130.846    -172.530
  P     -192.937    -131.261    -175.150
  C     -192.881    -133.344    -176.711
  O     -193.597    -132.196    -176.278
  C     -193.653    -134.041    -177.836
  O     -195.026    -134.237    -177.402
  C     -193.695    -133.227    -179.139
  O     -193.625    -134.124    -180.250
  C     -195.062    -132.569    -179.092
  O     -195.565    -132.202    -180.370
  C     -195.891    -133.663    -178.407
  N     -197.115    -133.147    -177.801
  C     -198.123    -132.715    -178.656
  O     -198.087    -132.805    -179.885
  N     -199.217    -132.150    -178.049
  C     -199.385    -131.958    -176.708
  O     -200.377    -131.425    -176.222
  C     -198.283    -132.427    -175.853
  C     -197.214    -132.989    -176.432
  O     -191.405    -131.157    -175.612
  O     -193.584    -129.926    -175.002
  H     -190.986    -130.371    -175.217
  H     -195.631    -133.012    -180.913
  H     -199.958    -131.832    -178.656
  H     -198.374    -132.287    -174.784
  H     -196.378    -133.330    -175.830
  H     -196.137    -134.460    -179.120
  H     -195.026    -131.667    -178.471
  H     -192.892    -132.493    -179.203
  H     -193.221    -135.035    -178.004
  H     -192.769    -134.036    -175.870
  H     -191.889    -133.043    -177.063
  P     -192.182    -134.742    -180.611
  C     -191.502    -132.591    -181.937
  O     -191.221    -133.482    -180.870
  O     -192.452    -135.340    -182.065
  O     -191.700    -135.723    -179.594
  H     -193.052    -134.802    -182.605
  H     -190.763    -131.817    -181.959
  H     -192.469    -132.157    -181.794
  H     -191.485    -133.127    -182.863

 6  7  8  9  10  11  12  13  14  15  16  27  31  32  33  34  35 0
 6-311+G(2d,p)
 ****
 36  37 0
 6-311+G(2d,p)
 ****
 1  2  3  4  5  17  18  19  20  21  22  23  24  25 0
 3-21G
 ****
 26  28  29  30  38  39  40  41  42  43  44  45 0
 3-21G
 ****


