%nproc=1
%NoSave
%Mem=1900MB
#P OB98/GEN NMR

erre ene a

0 1
  C      671.079    -164.500    -300.635
  O      669.711    -164.194    -300.425
  P      668.827    -163.379    -301.472
  C      668.732    -160.934    -302.382
  O      669.245    -161.829    -301.392
  C      668.302    -159.582    -301.808
  O      667.315    -159.794    -300.778
  C      669.489    -158.892    -301.123
  O      670.407    -158.141    -301.894
  C      668.881    -158.147    -299.939
  O      668.655    -156.761    -300.226
  C      667.556    -158.857    -299.705
  N      664.828    -159.751    -295.523
  C      664.437    -159.166    -296.709
  N      663.206    -158.595    -296.707
  N      665.186    -159.148    -297.790
  C      666.411    -159.683    -297.609
  C      666.915    -160.290    -296.476
  C      666.073    -160.343    -295.306
  O      666.403    -160.770    -294.200
  N      668.231    -160.648    -296.625
  C      668.542    -160.228    -297.841
  N      667.483    -159.591    -298.446
  O      667.374    -163.721    -301.539
  O      669.493    -163.837    -302.877
  H      669.527    -156.376    -300.500
  H      668.779    -163.873    -303.539
  H      664.243    -159.665    -294.693
  H      669.522    -160.308    -298.296
  H      666.726    -158.157    -299.716
  H      669.565    -158.185    -299.078
  H      662.672    -158.461    -295.866
  H      670.098    -159.690    -300.678
  H      662.961    -158.020    -297.507
  H      667.815    -158.967    -302.577
  H      667.901    -161.438    -302.882
  H      669.510    -160.777    -303.154
  P      672.003    -158.270    -301.845
  C      673.806    -158.548    -300.049
  O      672.489    -158.081    -300.341
  O      672.521    -156.920    -302.563
  O      672.562    -159.473    -302.556
  H      673.436    -157.067    -302.894
  H      673.903    -158.655    -298.961
  H      674.531    -157.814    -300.404
  H      673.984    -159.513    -300.524
  H      671.454    -165.051    -299.798
  H      671.635    -163.592    -300.743
  H      671.181    -165.088    -301.523

 3  4  5  6  7  8  9  10  11  12  23  26  30  31 0
 6-311+G(2d,p)
 ****
 33  35  36  37  38 0
 6-311+G(2d,p)
 ****
 1  2  13  14  15  16  17  18  19  20  21  22  24  25 0
 3-21G
 ****
 27  28  29  32  34  39  40  41  42  43  44  45  46  47  48  49 0
 3-21G
 ****


