%nproc=1
%NoSave
%Mem=1900MB
#P OB98/GEN NMR

erre ene a

0 1
  C     -307.014    -266.694     399.785
  O     -305.621    -266.510     399.952
  H     -307.186    -267.675     399.327
  H     -307.419    -265.922     399.126
  H     -307.515    -266.666     400.758
  P     -305.158    -265.130     400.637
  C     -305.331    -266.395     402.889
  O     -305.695    -265.240     402.143
  C     -303.899    -266.270     403.410
  O     -303.764    -265.104     404.247
  C     -303.432    -267.445     404.261
  O     -303.021    -268.532     403.443
  C     -302.255    -266.817     404.996
  O     -301.101    -266.792     404.135
  C     -302.748    -265.379     405.253
  N     -301.947    -265.612     410.327
  C     -301.235    -266.077     409.283
  N     -301.530    -266.025     407.967
  C     -302.703    -265.394     407.766
  C     -303.544    -264.868     408.734
  C     -303.124    -264.985     410.071
  N     -303.858    -264.495     411.136
  N     -304.668    -264.302     408.151
  C     -304.479    -264.448     406.849
  N     -303.319    -265.135     406.570
  O     -305.517    -263.888     399.896
  O     -303.585    -265.390     400.811
  H     -300.395    -266.303     404.604
  H     -303.418    -266.311     401.069
  H     -300.293    -266.565     409.537
  H     -305.133    -264.062     406.082
  H     -301.946    -264.643     405.121
  H     -301.973    -267.380     405.889
  H     -304.197    -267.740     404.996
  H     -303.237    -266.124     402.548
  H     -305.423    -267.292     402.272
  H     -303.571    -264.771     412.062
  H     -304.782    -264.144     410.950
  H     -306.033    -266.479     403.728
  P     -303.253    -270.049     403.916
  C     -305.731    -269.781     403.276
  O     -304.814    -270.182     404.286
  O     -302.320    -270.528     404.976
  O     -303.123    -270.910     402.577
  H     -302.665    -271.751     402.765
  H     -306.732    -269.912     403.631
  H     -305.582    -270.378     402.401
  H     -305.570    -268.751     403.036

 6  7  8  9  10  11  12  13  14  15  25  28  32  33  34  35 0
 6-311+G(2d,p)
 ****
 36  39  40 0
 6-311+G(2d,p)
 ****
 1  2  3  4  5  16  17  18  19  20  21  22  23  24 0
 3-21G
 ****
 26  27  29  30  31  37  38  41  42  43  44  45  46  47 0
 3-21G
 ****
 48 0
 3-21G
 ****


