%nproc=1
%NoSave
%Mem=1900MB
#P OB98/GEN NMR

erre ene a

0 1
  C      159.419    -299.877     235.393
  O      158.129    -299.567     235.883
  H      159.341    -300.745     234.733
  H      160.097    -300.123     236.215
  H      159.820    -299.037     234.820
  P      157.990    -298.394     236.972
  C      157.057    -300.016     238.764
  O      156.801    -298.892     237.936
  C      155.908    -300.212     239.756
  O      156.080    -301.429     240.514
  C      155.768    -299.116     240.807
  O      155.227    -297.906     240.293
  C      154.830    -299.806     241.787
  O      153.492    -299.794     241.261
  C      155.411    -301.244     241.793
  N      156.346    -301.475     242.897
  C      155.788    -301.906     244.109
  O      154.572    -302.073     244.214
  N      156.615    -302.102     245.186
  C      157.891    -301.872     245.076
  N      158.661    -302.036     246.185
  C      158.524    -301.434     243.812
  C      157.700    -301.250     242.780
  O      157.840    -297.006     236.437
  O      159.269    -298.576     237.921
  H      152.913    -300.190     241.937
  H      159.235    -297.865     238.607
  H      159.587    -301.245     243.773
  H      158.091    -300.914     241.819
  H      154.608    -301.986     241.849
  H      154.802    -299.322     242.769
  H      156.727    -298.933     241.306
  H      154.983    -300.332     239.166
  H      158.187    -302.295     247.039
  H      158.003    -299.849     239.291
  H      159.583    -301.620     246.257
  H      157.143    -300.924     238.156
  P      155.952    -296.530     240.686
  C      154.890    -296.498     243.069
  O      155.054    -295.840     241.822
  O      155.708    -295.616     239.398
  O      157.406    -296.640     241.046
  H      156.463    -295.669     238.778
  H      154.267    -295.905     243.706
  H      155.846    -296.632     243.530
  H      154.433    -297.453     242.911

 6  7  8  9  10  11  12  13  14  15  16  26  30  31  32  33  35 0
 6-311+G(2d,p)
 ****
 37  38 0
 6-311+G(2d,p)
 ****
 1  2  3  4  5  17  18  19  20  21  22  23  24  25 0
 3-21G
 ****
 27  28  29  34  36  39  40  41  42  43  44  45  46 0
 3-21G
 ****


