%nproc=1
%NoSave
%Mem=1900MB
#P OB98/GEN NMR

erre ene a

0 1
  C      521.847     565.459     213.223
  O      523.264     565.529     213.147
  P      524.052     566.164     214.405
  C      526.303     565.621     213.139
  O      525.515     566.553     213.840
  C      527.227     566.327     212.144
  O      526.433     567.027     211.158
  C      528.121     567.399     212.772
  O      529.222     566.822     213.461
  C      528.499     568.241     211.556
  O      529.547     567.595     210.805
  C      527.172     568.198     210.745
  N      526.380     569.422     210.868
  C      526.458     570.324     209.821
  O      527.142     570.129     208.807
  N      525.726     571.459     209.978
  C      524.997     571.826     211.065
  O      524.399     572.899     211.167
  C      524.978     570.845     212.161
  C      525.660     569.708     212.015
  O      524.294     564.856     215.291
  O      523.297     567.261     215.080
  H      524.329     564.052     214.743
  H      529.648     568.104     209.972
  H      525.745     572.129     209.204
  H      524.416     571.104     213.056
  H      525.671     568.969     212.811
  H      527.404     568.046     209.669
  H      528.833     569.241     211.811
  H      527.540     568.012     213.482
  H      527.825     565.567     211.632
  H      525.643     564.929     212.594
  H      526.882     565.032     213.853
  P      529.395     567.213     215.013
  C      531.826     566.245     214.922
  O      530.980     567.323     215.270
  O      528.957     565.851     215.742
  O      528.591     568.420     215.413
  H      529.327     565.070     215.288
  H      532.860     566.615     214.841
  H      531.528     565.797     213.969
  H      531.797     565.490     215.711
  H      521.463     565.019     212.326
  H      521.447     566.445     213.337
  H      521.564     564.860     214.063

 3  4  5  6  7  8  9  10  11  12  13  24  28  29  30  31  32 0
 6-311+G(2d,p)
 ****
 33  34 0
 6-311+G(2d,p)
 ****
 1  2  14  15  16  17  18  19  20  21  22  23  25  26  27 0
 3-21G
 ****
 35  36  37  38  39  40  41  42  43  44  45 0
 3-21G
 ****


