%nproc=1
%NoSave
%Mem=1900MB
#P OB98/GEN NMR

erre ene a

0 1
  C      -59.436      -1.521     -30.054
  O      -59.951      -1.840     -31.349
  P      -59.259      -1.092     -32.589
  C      -59.055      -2.677     -34.627
  O      -59.853      -1.725     -33.941
  C      -59.125      -4.054     -33.957
  O      -60.482      -4.349     -33.511
  C      -58.695      -5.208     -34.870
  O      -58.047      -6.179     -34.038
  C      -60.020      -5.770     -35.347
  O      -59.876      -7.094     -35.855
  C      -60.838      -5.637     -34.064
  N      -65.035      -8.080     -32.686
  C      -63.717      -8.312     -32.340
  N      -63.490      -9.308     -31.460
  N      -62.713      -7.622     -32.816
  C      -63.096      -6.630     -33.658
  C      -64.366      -6.294     -34.064
  C      -65.466      -7.084     -33.554
  O      -66.649      -6.919     -33.824
  N      -64.353      -5.203     -34.902
  C      -63.066      -4.934     -35.049
  N      -62.269      -5.732     -34.274
  O      -57.752      -1.628     -32.542
  O      -59.323       0.398     -32.500
  H      -59.184      -7.070     -36.550
  H      -57.171      -0.963     -32.129
  H      -65.769      -8.652     -32.302
  H      -62.663      -4.159     -35.680
  H      -60.583      -6.411     -33.327
  H      -60.434      -5.139     -36.143
  H      -64.220      -9.843     -31.018
  H      -58.036      -4.914     -35.692
  H      -62.536      -9.471     -31.159
  H      -58.487      -4.032     -33.065
  H      -58.015      -2.345     -34.651
  H      -59.380      -2.729     -35.672
  P      -56.486      -6.446     -34.274
  C      -55.716      -7.108     -31.896
  O      -56.019      -7.541     -33.206
  O      -55.804      -5.094     -33.748
  O      -56.108      -6.715     -35.695
  H      -55.057      -4.858     -34.327
  H      -55.876      -7.938     -31.204
  H      -56.345      -6.267     -31.588
  H      -54.666      -6.806     -31.848
  H      -59.970      -2.076     -29.311
  H      -59.555      -0.473     -29.871
  H      -58.398      -1.775     -30.011

 3  4  5  6  7  8  9  10  11  12  23  26  30  31 0
 6-311+G(2d,p)
 ****
 33  35  36  37  38 0
 6-311+G(2d,p)
 ****
 1  2  13  14  15  16  17  18  19  20  21  22  24  25 0
 3-21G
 ****
 27  28  29  32  34  39  40  41  42  43  44  45  46  47  48  49 0
 3-21G
 ****


