%nproc=1
%NoSave
%Mem=1900MB
#P OB98/GEN NMR

erre ene a

0 1
  C     -914.456     754.895     414.123
  O     -913.536     754.959     413.039
  H     -914.653     755.911     414.470
  H     -914.043     754.311     414.950
  H     -915.394     754.447     413.789
  P     -912.867     753.583     412.541
  C     -914.177     753.888     410.336
  O     -913.868     753.001     411.410
  C     -913.408     753.505     409.066
  O     -913.793     752.185     408.611
  C     -913.691     754.426     407.877
  O     -913.216     755.744     408.020
  C     -913.195     753.570     406.716
  O     -911.779     753.670     406.536
  C     -913.572     752.133     407.193
  N     -914.728     751.605     406.467
  C     -914.488     751.155     405.182
  O     -913.384     751.223     404.624
  N     -915.577     750.665     404.510
  C     -916.846     750.623     404.984
  O     -917.788     750.172     404.329
  C     -917.053     751.136     406.343
  C     -915.995     751.597     407.031
  O     -912.524     752.592     413.616
  O     -911.605     754.068     411.685
  H     -911.526     753.014     405.863
  H     -910.972     753.314     411.527
  H     -915.416     750.327     403.579
  H     -918.056     751.125     406.758
  H     -916.113     751.993     408.029
  H     -912.727     751.452     407.037
  H     -913.665     753.860     405.765
  H     -914.786     754.492     407.750
  H     -912.349     753.483     409.305
  H     -913.900     754.903     410.636
  H     -915.258     753.855     410.148
  P     -913.835     756.978     407.247
  C     -915.589     757.620     409.083
  O     -915.347     757.208     407.735
  O     -913.563     757.062     405.782
  O     -913.070     758.222     407.961
  H     -912.934     758.897     407.276
  H     -916.642     757.726     409.240
  H     -915.105     758.558     409.262
  H     -915.200     756.884     409.756

 6  7  8  9  10  11  12  13  14  15  16  26  31  32  33  34  35 0
 6-311+G(2d,p)
 ****
 36  37 0
 6-311+G(2d,p)
 ****
 1  2  3  4  5  17  18  19  20  21  22  23  24  25 0
 3-21G
 ****
 27  28  29  30  38  39  40  41  42  43  44  45 0
 3-21G
 ****


