%nproc=1
%NoSave
%Mem=1900MB
#P OB98/GEN NMR

erre ene a

0 1
  C       88.895      16.721      90.712
  O       89.426      15.496      91.176
  H       88.152      16.507      89.939
  H       89.686      17.333      90.271
  H       88.408      17.266      91.525
  P       90.474      15.518      92.390
  C       93.030      15.623      92.640
  O       91.937      15.611      91.734
  C       94.209      14.838      92.070
  O       93.861      13.430      92.040
  C       94.598      15.257      90.648
  O       96.019      15.201      90.532
  C       93.973      14.181      89.781
  O       94.661      14.015      88.543
  C       94.051      12.958      90.692
  N       93.234       8.648      88.188
  C       94.406       9.345      88.404
  N       95.527       8.835      87.851
  N       94.473      10.449      89.099
  C       93.278      10.839      89.606
  C       92.051      10.237      89.462
  C       91.986       9.022      88.678
  O       90.977       8.369      88.442
  N       91.069      10.951      90.105
  C       91.704      11.982      90.632
  N       93.044      11.965      90.349
  O       90.315      14.421      93.393
  O       90.274      16.961      93.049
  H       94.446      14.795      87.987
  H       89.720      16.901      93.849
  H       93.237       7.807      87.636
  H       91.243      12.768      91.217
  H       95.025      12.455      90.634
  H       92.929      14.441      89.561
  H       95.554       7.980      87.317
  H       94.241      16.257      90.386
  H       96.404       9.316      88.016
  H       95.059      14.940      92.755
  H       92.703      15.166      93.580
  H       93.328      16.659      92.836
  P       96.827      16.560      90.266
  C       96.703      18.437      88.507
  O       96.501      17.054      88.776
  O       98.275      16.532      90.627
  O       96.029      17.626      91.166
  H       96.653      18.316      91.462
  H       96.453      18.642      87.487
  H       97.729      18.688      88.680
  H       96.079      19.021      89.151

 6  7  8  9  10  11  12  13  14  15  26  29  33  34 0
 6-311+G(2d,p)
 ****
 36  38  39  40  41 0
 6-311+G(2d,p)
 ****
 1  2  3  4  5  16  17  18  19  20  21  22  23  24  25 0
 3-21G
 ****
 27  28  30  31  32  35  37  42  43  44  45  46  47 0
 3-21G
 ****
 48  49 0
 3-21G
 ****


