%nproc=1
%NoSave
%Mem=1900MB
#P OB98/GEN NMR

erre ene a

0 1
  C      -92.329       2.976     385.983
  O      -90.962       3.195     385.699
  H      -92.466       1.976     386.400
  H      -92.657       3.714     386.720
  H      -92.933       3.089     385.078
  P      -90.323       2.330     384.509
  C      -88.036       2.068     385.718
  O      -88.738       2.576     384.592
  C      -86.898       3.013     386.109
  O      -85.998       3.153     384.977
  C      -87.374       4.413     386.502
  O      -86.577       4.884     387.590
  C      -87.096       5.243     385.259
  O      -86.926       6.624     385.558
  C      -85.842       4.562     384.716
  N      -83.478       7.458     381.238
  C      -83.370       7.391     382.583
  N      -84.036       6.584     383.437
  C      -84.850       5.751     382.764
  C      -85.066       5.702     381.398
  C      -84.342       6.618     380.617
  N      -84.473       6.718     379.251
  N      -86.006       4.735     381.092
  C      -86.347       4.213     382.254
  N      -85.676       4.796     383.293
  O      -90.765       3.158     383.209
  O      -90.754       0.905     384.439
  H      -87.757       6.958     385.955
  H      -91.692       2.944     382.988
  H      -82.661       8.082     383.033
  H      -87.072       3.424     382.397
  H      -84.927       4.908     385.211
  H      -87.929       5.147     384.556
  H      -88.427       4.439     386.784
  H      -86.320       2.548     386.916
  H      -87.626       1.085     385.468
  H      -83.956       7.441     378.777
  H      -85.153       6.143     378.780
  H      -88.732       1.962     386.557
  P      -87.227       4.794     389.055
  C      -86.833       7.248     389.789
  O      -86.515       5.880     390.000
  O      -86.691       3.393     389.613
  O      -88.722       4.841     389.048
  H      -87.434       2.870     389.970
  H      -86.289       7.852     390.485
  H      -87.883       7.396     389.932
  H      -86.566       7.526     388.791

 6  7  8  9  10  11  12  13  14  15  25  28  32  33  34  35 0
 6-311+G(2d,p)
 ****
 36  39  40 0
 6-311+G(2d,p)
 ****
 1  2  3  4  5  16  17  18  19  20  21  22  23  24 0
 3-21G
 ****
 26  27  29  30  31  37  38  41  42  43  44  45  46  47 0
 3-21G
 ****
 48 0
 3-21G
 ****


