%nproc=1
%NoSave
%Mem=1900MB
#P OB98/GEN NMR

erre ene a

0 1
  C     -749.650     409.070    -662.426
  O     -750.952     408.446    -662.460
  P     -751.052     407.017    -663.143
  C     -750.198     407.846    -665.455
  O     -751.257     407.229    -664.727
  C     -750.527     407.844    -666.953
  O     -750.601     406.495    -667.488
  C     -751.867     408.492    -667.277
  O     -751.776     409.905    -667.207
  C     -752.093     407.961    -668.696
  O     -751.330     408.706    -669.660
  C     -751.543     406.523    -668.584
  N     -755.225     403.752    -670.823
  C     -754.374     404.683    -671.305
  N     -753.416     405.381    -670.637
  C     -753.388     405.018    -669.351
  C     -754.184     404.093    -668.709
  C     -755.155     403.445    -669.508
  N     -756.050     402.507    -668.996
  N     -753.876     403.993    -667.365
  C     -752.897     404.885    -667.197
  N     -752.563     405.530    -668.376
  O     -752.467     406.451    -662.654
  O     -749.935     406.085    -662.759
  H     -751.797     409.559    -669.814
  H     -752.342     405.741    -661.991
  H     -754.452     404.896    -672.378
  H     -752.417     405.097    -666.245
  H     -750.980     406.224    -669.477
  H     -753.139     408.001    -669.003
  H     -752.646     408.131    -666.595
  H     -749.705     408.365    -667.479
  H     -749.247     407.322    -665.275
  H     -756.752     402.150    -669.623
  H     -756.037     402.347    -668.009
  H     -750.068     408.872    -665.077
  P     -751.883     410.577    -665.752
  C     -754.453     410.625    -665.941
  O     -753.271     411.397    -665.814
  O     -750.778     411.738    -665.851
  O     -751.750     409.621    -664.598
  H     -750.844     412.239    -666.683
  H     -755.304     411.300    -665.931
  H     -754.541     409.928    -665.093
  H     -754.433     410.058    -666.887
  H     -749.723     410.021    -661.942
  H     -749.293     409.205    -663.426
  H     -748.969     408.446    -661.885

 3  4  5  6  7  8  9  10  11  12  22  25  29  30  31  32 0
 6-311+G(2d,p)
 ****
 33  36  37 0
 6-311+G(2d,p)
 ****
 1  2  13  14  15  16  17  18  19  20  21  23  24  26 0
 3-21G
 ****
 27  28  34  35  38  39  40  41  42  43  44  45  46  47  48 0
 3-21G
 ****


