%nproc=1
%NoSave
%Mem=1900MB
#P OB98/GEN NMR

erre ene a

0 1
  C      380.727    -120.161     -24.855
  O      380.833    -120.258     -26.262
  H      379.853    -120.733     -24.530
  H      380.599    -119.121     -24.546
  H      381.617    -120.584     -24.383
  P      381.939    -119.379     -27.016
  C      381.819    -120.959     -29.048
  O      381.715    -119.617     -28.588
  C      380.489    -121.694     -28.877
  O      379.429    -120.865     -29.426
  C      380.444    -123.054     -29.579
  O      379.697    -123.959     -28.764
  C      379.691    -122.743     -30.858
  O      379.082    -123.899     -31.398
  C      378.721    -121.647     -30.407
  N      378.276    -120.836     -31.540
  C      377.487    -121.480     -32.499
  O      377.187    -122.667     -32.359
  N      377.114    -120.793     -33.623
  C      377.534    -119.581     -33.805
  N      377.158    -118.968     -34.960
  C      378.391    -118.870     -32.834
  C      378.721    -119.547     -31.737
  O      383.346    -119.553     -26.553
  O      381.434    -117.874     -26.802
  H      379.768    -124.579     -31.570
  H      381.828    -117.502     -25.991
  H      378.721    -117.861     -33.037
  H      379.355    -119.109     -30.974
  H      377.841    -122.083     -29.920
  H      380.387    -122.347     -31.610
  H      381.440    -123.465     -29.781
  H      380.282    -121.798     -27.804
  H      376.590    -119.504     -35.606
  H      382.592    -121.458     -28.454
  H      377.460    -118.045     -35.232
  H      382.120    -120.967     -30.099
  P      380.431    -124.850     -27.650
  C      378.346    -125.406     -26.272
  O      379.392    -125.938     -27.080
  O      381.147    -124.068     -26.597
  O      381.467    -125.740     -28.492
  H      382.244    -125.938     -27.936
  H      377.711    -126.201     -25.942
  H      377.774    -124.706     -26.845
  H      378.768    -124.911     -25.423

 6  7  8  9  10  11  12  13  14  15  16  26  30  31  32  33  35 0
 6-311+G(2d,p)
 ****
 37  38 0
 6-311+G(2d,p)
 ****
 1  2  3  4  5  17  18  19  20  21  22  23  24  25 0
 3-21G
 ****
 27  28  29  34  36  39  40  41  42  43  44  45  46 0
 3-21G
 ****


