%nproc=1
%NoSave
%Mem=1900MB
#P OB98/GEN NMR

erre ene a

0 1
  C     -630.920      60.131    -478.726
  O     -630.380      60.454    -479.994
  H     -630.610      60.897    -478.009
  H     -630.542      59.162    -478.388
  H     -632.013      60.113    -478.767
  P     -630.705      59.429    -481.185
  C     -628.199      59.175    -481.834
  O     -629.385      58.531    -481.376
  C     -627.023      58.208    -481.813
  O     -626.519      58.048    -480.463
  C     -627.346      56.809    -482.330
  O     -627.299      56.757    -483.738
  C     -626.247      55.985    -481.666
  O     -625.003      56.082    -482.394
  C     -626.126      56.661    -480.288
  N     -626.438      52.787    -477.070
  C     -625.426      53.134    -477.946
  N     -624.358      52.302    -478.002
  N     -625.461      54.207    -478.694
  C     -626.599      54.921    -478.548
  C     -627.668      54.687    -477.713
  C     -627.598      53.520    -476.860
  O     -628.434      53.176    -476.022
  N     -628.628      55.646    -477.837
  C     -628.168      56.452    -478.788
  N     -626.943      56.038    -479.256
  O     -630.703      60.365    -482.489
  O     -631.982      58.672    -481.049
  H     -624.431      55.332    -482.153
  H     -631.328      59.991    -483.144
  H     -626.350      51.959    -476.504
  H     -628.670      57.333    -479.152
  H     -625.095      56.655    -479.923
  H     -626.505      54.927    -481.626
  H     -624.436      51.332    -477.718
  H     -628.322      56.478    -481.952
  H     -623.628      52.542    -478.654
  H     -626.214      58.661    -482.415
  H     -627.979      60.028    -481.173
  H     -628.369      59.548    -482.850
  P     -627.619      55.352    -484.458
  C     -625.349      55.525    -485.733
  O     -626.206      54.738    -484.898
  O     -628.279      55.785    -485.853
  O     -628.492      54.442    -483.654
  H     -628.749      55.023    -486.231
  H     -624.451      54.980    -485.937
  H     -625.106      56.439    -485.233
  H     -625.850      55.744    -486.653

 6  7  8  9  10  11  12  13  14  15  26  29  33  34 0
 6-311+G(2d,p)
 ****
 36  38  39  40  41 0
 6-311+G(2d,p)
 ****
 1  2  3  4  5  16  17  18  19  20  21  22  23  24  25 0
 3-21G
 ****
 27  28  30  31  32  35  37  42  43  44  45  46  47 0
 3-21G
 ****
 48  49 0
 3-21G
 ****


