%nproc=1
%NoSave
%Mem=1900MB
#P OB98/GEN NMR

erre ene a

0 1
  C      135.811      -0.738      87.201
  O      134.496      -0.508      87.674
  P      134.247       0.808      88.562
  C      134.883       2.220      86.476
  O      135.083       1.989      87.866
  C      134.935       3.713      86.148
  O      134.685       3.892      84.733
  C      133.919       4.558      86.919
  O      134.536       5.809      87.229
  C      132.813       4.791      85.908
  O      132.064       5.968      86.207
  C      133.613       4.848      84.597
  N      132.784       4.558      83.432
  C      131.991       5.602      82.946
  O      131.954       6.678      83.544
  N      131.223       5.386      81.830
  C      131.167       4.199      81.310
  N      130.394       4.036      80.203
  C      131.892       3.041      81.866
  C      132.689       3.294      82.902
  O      135.078       0.504      89.893
  O      132.811       1.105      88.844
  H      131.720       5.884      87.124
  H      134.653       0.916      90.670
  H      131.782       2.065      81.416
  H      133.277       2.511      83.361
  H      134.067       5.838      84.464
  H      132.127       3.936      85.902
  H      133.577       4.076      87.839
  H      135.953       4.071      86.345
  H      129.895       4.843      79.850
  H      133.897       1.843      86.191
  H      130.289       3.149      79.731
  H      135.637       1.671      85.905
  P      134.006       6.599      88.520
  C      135.577       5.243      90.031
  O      134.237       5.592      89.746
  O      132.417       6.503      88.322
  O      134.442       8.012      88.713
  H      131.968       7.010      89.023
  H      135.600       4.670      90.961
  H      136.189       6.139      90.153
  H      135.979       4.620      89.225
  H      135.831      -1.642      86.629
  H      136.479      -0.827      88.032
  H      136.117       0.081      86.584

 3  4  5  6  7  8  9  10  11  12  13  21  23  27  28  29  30  32 0
 6-311+G(2d,p)
 ****
 34  35 0
 6-311+G(2d,p)
 ****
 1  2  14  15  16  17  18  19  20  22  24  25  26 0
 3-21G
 ****
 31  33  36  37  38  39  40  41  42  43  44  45  46 0
 3-21G
 ****


