%nproc=1
%NoSave
%Mem=1900MB
#P OB98/GEN NMR

erre ene a

0 1
  C      207.392    -183.707      38.752
  O      208.709    -184.231      38.947
  P      209.606    -184.762      37.728
  C      209.511    -187.197      38.560
  O      209.267    -186.311      37.472
  C      208.802    -188.541      38.364
  O      208.822    -188.933      36.976
  C      209.420    -189.703      39.139
  O      209.030    -189.661      40.498
  C      208.892    -190.899      38.351
  O      207.546    -191.209      38.749
  C      208.916    -190.368      36.911
  N      211.199    -194.209      34.418
  C      209.991    -194.107      35.013
  N      209.456    -193.052      35.663
  C      210.300    -192.007      35.641
  C      211.565    -191.960      35.076
  C      212.018    -193.129      34.441
  N      213.255    -193.231      33.850
  N      212.142    -190.724      35.275
  C      211.232    -190.030      35.931
  N      210.102    -190.762      36.176
  O      211.065    -184.470      37.867
  O      209.005    -184.034      36.433
  H      207.169    -191.794      38.067
  H      209.703    -183.931      35.760
  H      209.368    -194.999      34.963
  H      211.346    -189.001      36.247
  H      208.047    -190.712      36.339
  H      209.494    -191.801      38.499
  H      210.512    -189.668      39.055
  H      207.751    -188.411      38.650
  H      209.150    -186.724      39.482
  H      213.517    -194.116      33.443
  H      213.890    -192.446      33.902
  H      210.591    -187.356      38.645
  P      210.129    -189.470      41.644
  C      209.690    -191.778      42.669
  O      210.643    -190.930      42.054
  O      209.729    -188.592      42.780
  O      211.390    -188.865      40.859
  H      211.903    -188.298      41.466
  H      209.594    -191.515      43.726
  H      210.038    -192.812      42.590
  H      208.717    -191.696      42.178
  H      206.981    -183.414      39.696
  H      206.771    -184.458      38.310
  H      207.439    -182.857      38.104

 3  4  5  6  7  8  9  10  11  12  22  25  29  30  31  32 0
 6-311+G(2d,p)
 ****
 33  36  37 0
 6-311+G(2d,p)
 ****
 1  2  13  14  15  16  17  18  19  20  21  23  24  26 0
 3-21G
 ****
 27  28  34  35  38  39  40  41  42  43  44  45  46  47  48 0
 3-21G
 ****


