%nproc=1
%NoSave
%Mem=1900MB
#P OB98/GEN NMR

erre ene a

0 1
  C      164.333    -180.404      25.598
  O      164.385    -181.748      25.176
  H      165.286    -179.925      25.359
  H      164.182    -180.365      26.680
  H      163.530    -179.857      25.097
  P      163.013    -182.546      24.980
  C      163.390    -183.735      22.720
  O      162.731    -182.677      23.404
  C      164.221    -183.217      21.546
  O      165.315    -182.415      22.041
  C      164.841    -184.348      20.720
  O      164.003    -184.855      19.696
  C      166.076    -183.669      20.134
  O      165.771    -183.014      18.891
  C      166.457    -182.641      21.203
  N      171.281    -184.334      21.289
  C      170.422    -184.218      20.212
  N      170.904    -184.640      19.023
  N      169.206    -183.746      20.309
  C      168.834    -183.458      21.575
  C      169.589    -183.552      22.724
  C      170.958    -184.005      22.597
  O      171.763    -184.110      23.517
  N      168.860    -183.210      23.837
  C      167.646    -182.996      23.370
  N      167.600    -183.056      21.996
  O      161.898    -181.491      25.443
  O      162.891    -183.819      25.761
  H      165.344    -183.667      18.303
  H      161.140    -181.965      25.831
  H      172.214    -184.676      21.149
  H      166.779    -182.750      23.972
  H      166.718    -181.675      20.754
  H      166.858    -184.402      19.919
  H      171.797    -185.089      18.908
  H      165.176    -185.162      21.370
  H      170.246    -184.749      18.249
  H      163.599    -182.561      20.924
  H      162.610    -184.405      22.358
  H      164.018    -184.303      23.413
  P      162.751    -185.784      20.044
  C      160.672    -184.760      18.811
  O      161.431    -184.890      19.992
  O      162.940    -186.073      21.607
  O      162.644    -187.043      19.250
  H      163.351    -186.946      21.747
  H      159.834    -184.120      18.994
  H      160.324    -185.724      18.503
  H      161.282    -184.337      18.040

 6  7  8  9  10  11  12  13  14  15  26  29  33  34 0
 6-311+G(2d,p)
 ****
 36  38  39  40  41 0
 6-311+G(2d,p)
 ****
 1  2  3  4  5  16  17  18  19  20  21  22  23  24  25 0
 3-21G
 ****
 27  28  30  31  32  35  37  42  43  44  45  46  47 0
 3-21G
 ****
 48  49 0
 3-21G
 ****


