%nproc=1
%NoSave
%Mem=1900MB
#P OB98/GEN NMR

erre ene a

0 1
  C      -19.514    -215.465     201.298
  O      -18.920    -214.533     200.419
  H      -20.360    -215.940     200.786
  H      -19.889    -214.957     202.189
  H      -18.800    -216.241     201.588
  P      -17.534    -213.843     200.845
  C      -18.651    -211.697     201.735
  O      -17.767    -212.257     200.772
  C      -18.756    -210.183     201.528
  O      -19.731    -209.625     202.436
  C      -17.454    -209.429     201.798
  O      -16.539    -209.597     200.730
  C      -17.981    -208.012     201.976
  O      -18.235    -207.396     200.705
  C      -19.309    -208.273     202.739
  N      -19.194    -208.071     204.182
  C      -18.940    -206.769     204.606
  O      -18.777    -205.827     203.826
  N      -18.866    -206.584     205.964
  C      -18.930    -207.570     206.910
  O      -18.803    -207.356     208.115
  C      -19.159    -208.927     206.397
  C      -19.282    -209.116     205.084
  O      -16.317    -214.330     200.131
  O      -17.446    -214.121     202.418
  H      -18.787    -208.020     200.192
  H      -16.844    -214.872     202.588
  H      -18.674    -205.651     206.288
  H      -19.212    -209.739     207.124
  H      -19.449    -210.109     204.690
  H      -20.100    -207.605     202.360
  H      -17.283    -207.368     202.507
  H      -17.009    -209.762     202.746
  H      -19.104    -210.004     200.500
  H      -18.258    -211.899     202.736
  H      -19.632    -212.169     201.636
  P      -14.986    -209.864     201.016
  C      -14.657    -207.337     201.283
  O      -14.185    -208.515     200.647
  O      -14.428    -211.107     200.398
  O      -14.892    -209.919     202.613
  H      -14.762    -210.845     202.908
  H      -14.063    -206.502     200.974
  H      -14.586    -207.452     202.344
  H      -15.678    -207.169     201.010

 6  7  8  9  10  11  12  13  14  15  16  26  31  32  33  34  35 0
 6-311+G(2d,p)
 ****
 36  37 0
 6-311+G(2d,p)
 ****
 1  2  3  4  5  17  18  19  20  21  22  23  24  25 0
 3-21G
 ****
 27  28  29  30  38  39  40  41  42  43  44  45 0
 3-21G
 ****


