%nproc=1
%NoSave
%Mem=1900MB
#P OB98/GEN NMR

erre ene a

0 1
  C      -54.992      91.741    -146.074
  O      -55.023      91.164    -144.781
  P      -54.260      91.916    -143.588
  C      -51.759      92.592    -143.164
  O      -52.731      92.063    -144.046
  C      -50.526      93.057    -143.948
  O      -50.965      93.735    -145.157
  C      -49.615      94.027    -143.183
  O      -48.267      93.743    -143.577
  C      -50.050      95.383    -143.710
  O      -49.059      96.382    -143.537
  C      -50.350      95.038    -145.173
  N      -51.224      96.008    -145.833
  C      -50.685      97.244    -146.173
  O      -49.525      97.574    -145.935
  N      -51.543      98.119    -146.787
  C      -52.871      97.912    -147.025
  O      -53.599      98.739    -147.560
  C      -53.397      96.607    -146.599
  C      -52.562      95.728    -146.042
  O      -54.225      90.769    -142.473
  O      -54.915      93.187    -143.166
  H      -54.111      89.879    -142.847
  H      -49.453      97.244    -143.768
  H      -51.164      99.008    -147.076
  H      -54.451      96.410    -146.757
  H      -52.927      94.761    -145.719
  H      -49.414      94.945    -145.736
  H      -50.955      95.706    -143.181
  H      -49.715      93.929    -142.099
  H      -49.963      92.168    -144.259
  H      -51.456      91.822    -142.451
  H      -52.194      93.422    -142.599
  P      -47.076      94.218    -142.604
  C      -46.479      96.567    -141.617
  O      -46.997      95.814    -142.690
  O      -45.805      93.750    -143.466
  O      -47.102      93.618    -141.237
  H      -45.857      94.022    -144.395
  H      -46.199      97.558    -141.983
  H      -45.594      96.093    -141.185
  H      -47.245      96.681    -140.846
  H      -55.543      91.124    -146.753
  H      -53.978      91.819    -146.405
  H      -55.432      92.716    -146.040

 3  4  5  6  7  8  9  10  11  12  13  24  28  29  30  31  32 0
 6-311+G(2d,p)
 ****
 33  34 0
 6-311+G(2d,p)
 ****
 1  2  14  15  16  17  18  19  20  21  22  23  25  26  27 0
 3-21G
 ****
 35  36  37  38  39  40  41  42  43  44  45 0
 3-21G
 ****


