%nproc=1
%NoSave
%Mem=1900MB
#P OB98/GEN NMR

erre ene a

0 1
  C      101.083     458.697     538.070
  O      101.120     457.531     538.905
  P      101.950     457.485     540.274
  C      103.951     456.246     539.218
  O      103.520     457.405     539.923
  C      105.387     456.391     538.707
  O      105.466     457.387     537.663
  C      106.396     456.828     539.775
  O      106.759     455.732     540.589
  C      107.517     457.393     538.912
  O      108.346     456.334     538.406
  C      106.733     458.057     537.763
  N      108.196     462.712     536.231
  C      108.548     461.471     535.813
  N      108.123     460.275     536.281
  C      107.211     460.451     537.258
  C      106.755     461.642     537.781
  C      107.291     462.825     537.224
  N      106.946     464.086     537.653
  N      105.840     461.431     538.788
  C      105.737     460.114     538.858
  N      106.543     459.483     537.953
  O      101.496     456.444     541.235
  O      101.788     458.952     540.898
  H      108.730     455.871     539.172
  H      101.860     458.899     541.873
  H      109.277     461.431     535.006
  H      105.089     459.583     539.546
  H      107.237     457.916     536.800
  H      108.168     458.085     539.462
  H      105.963     457.629     540.388
  H      105.691     455.435     538.276
  H      103.278     456.089     538.365
  H      107.397     464.878     537.226
  H      106.304     464.180     538.432
  H      103.880     455.383     539.886
  P      106.567     455.812     542.177
  C      108.870     456.688     542.885
  O      107.505     457.003     542.710
  O      106.708     454.519     542.911
  O      105.095     456.423     542.348
  H      104.702     456.095     543.183
  H      109.006     456.155     543.831
  H      109.444     457.617     542.913
  H      109.244     456.073     542.066
  H      100.472     458.503     537.213
  H      102.075     458.940     537.752
  H      100.674     459.518     538.621

 3  4  5  6  7  8  9  10  11  12  22  25  29  30  31  32 0
 6-311+G(2d,p)
 ****
 33  36  37 0
 6-311+G(2d,p)
 ****
 1  2  13  14  15  16  17  18  19  20  21  23  24  26 0
 3-21G
 ****
 27  28  34  35  38  39  40  41  42  43  44  45  46  47  48 0
 3-21G
 ****


