%nproc=1
%NoSave
%Mem=1900MB
#P OB98/GEN NMR

erre ene a

0 1
  C       61.535    -259.926    -500.821
  O       62.395    -259.027    -500.135
  P       63.413    -258.160    -501.026
  C       61.599    -256.366    -501.544
  O       62.521    -257.317    -502.059
  C       61.980    -254.956    -502.013
  O       63.285    -254.607    -501.514
  C       62.058    -254.792    -503.522
  O       60.764    -254.715    -504.100
  C       62.873    -253.511    -503.620
  O       62.033    -252.370    -503.377
  C       63.876    -253.678    -502.462
  N       68.262    -252.570    -504.869
  C       67.160    -251.831    -504.618
  N       66.026    -252.202    -503.990
  C       66.096    -253.488    -503.595
  C       67.145    -254.364    -503.805
  C       68.271    -253.865    -504.471
  N       69.393    -254.623    -504.733
  N       66.846    -255.610    -503.280
  C       65.644    -255.475    -502.760
  N       65.158    -254.207    -502.908
  O       64.110    -259.259    -501.952
  O       64.413    -257.366    -500.240
  H       61.796    -252.381    -502.433
  H       65.041    -259.025    -502.136
  H       67.190    -250.803    -504.968
  H       65.097    -256.262    -502.258
  H       64.073    -252.742    -501.931
  H       63.342    -253.368    -504.601
  H       62.613    -255.629    -503.967
  H       61.246    -254.254    -501.587
  H       61.617    -256.388    -500.450
  H       70.092    -254.231    -505.341
  H       69.341    -255.622    -504.560
  H       60.592    -256.628    -501.878
  P       60.648    -254.963    -505.684
  C       61.030    -257.445    -505.136
  O       61.452    -256.335    -505.914
  O       61.666    -253.869    -506.255
  O       59.256    -254.919    -506.226
  H       62.518    -253.885    -505.792
  H       61.613    -258.324    -505.426
  H       59.970    -257.652    -505.311
  H       61.200    -257.244    -504.076
  H       60.914    -260.436    -500.114
  H       62.122    -260.640    -501.360
  H       60.921    -259.380    -501.506

 3  4  5  6  7  8  9  10  11  12  22  25  29  30  31  32 0
 6-311+G(2d,p)
 ****
 33  36  37 0
 6-311+G(2d,p)
 ****
 1  2  13  14  15  16  17  18  19  20  21  23  24  26 0
 3-21G
 ****
 27  28  34  35  38  39  40  41  42  43  44  45  46  47  48 0
 3-21G
 ****


