%nproc=1
%NoSave
%Mem=1900MB
#P OB98/GEN NMR

erre ene a

0 1
  C       88.373    -198.891     -66.377
  O       89.403    -199.593     -67.043
  H       88.824    -198.192     -65.666
  H       87.734    -199.590     -65.829
  H       87.774    -198.327     -67.097
  P       88.937    -200.716     -68.091
  C       90.014    -202.649     -66.742
  O       89.991    -201.919     -67.961
  C       90.640    -204.027     -66.958
  O       90.929    -204.659     -65.692
  C       89.766    -205.000     -67.745
  O       89.905    -204.796     -69.139
  C       90.328    -206.336     -67.286
  O       91.547    -206.656     -67.994
  C       90.617    -206.073     -65.803
  N       88.835    -209.586     -62.641
  C       89.944    -209.606     -63.459
  N       90.676    -210.744     -63.464
  N       90.304    -208.606     -64.223
  C       89.448    -207.558     -64.164
  C       88.317    -207.418     -63.392
  C       87.962    -208.510     -62.511
  O       87.042    -208.520     -61.701
  N       87.724    -206.198     -63.598
  C       88.477    -205.617     -64.514
  N       89.531    -206.407     -64.895
  O       89.294    -200.070     -69.517
  O       87.499    -201.101     -68.022
  H       91.894    -207.504     -67.663
  H       88.594    -200.309     -70.151
  H       88.625    -210.374     -62.050
  H       88.309    -204.630     -64.923
  H       91.496    -206.626     -65.450
  H       89.634    -207.154     -67.486
  H       90.302    -211.625     -63.137
  H       88.714    -204.923     -67.435
  H       91.445    -210.784     -64.121
  H       91.600    -203.875     -67.468
  H       88.986    -202.769     -66.381
  H       90.594    -202.093     -65.999
  P       88.589    -204.481     -69.996
  C       88.186    -207.003     -70.461
  O       88.357    -205.702     -71.011
  O       89.061    -203.284     -70.952
  O       87.401    -204.083     -69.188
  H       88.682    -202.441     -70.641
  H       88.042    -207.709     -71.252
  H       87.331    -207.009     -69.818
  H       89.056    -207.270     -69.899

 6  7  8  9  10  11  12  13  14  15  26  29  33  34 0
 6-311+G(2d,p)
 ****
 36  38  39  40  41 0
 6-311+G(2d,p)
 ****
 1  2  3  4  5  16  17  18  19  20  21  22  23  24  25 0
 3-21G
 ****
 27  28  30  31  32  35  37  42  43  44  45  46  47 0
 3-21G
 ****
 48  49 0
 3-21G
 ****


