%nproc=1
%NoSave
%Mem=1900MB
#P OB98/GEN NMR

erre ene a

0 1
  C      174.942      57.244     -62.589
  O      173.554      56.970     -62.474
  P      173.103      55.434     -62.364
  C      172.136      55.351     -59.967
  O      173.231      55.031     -60.815
  C      171.581      54.098     -59.299
  O      171.110      53.186     -60.330
  C      172.601      53.335     -58.440
  O      171.977      52.928     -57.215
  C      172.883      52.082     -59.252
  O      173.320      51.003     -58.433
  C      171.523      51.869     -59.914
  N      170.374      47.181     -61.396
  C      170.000      47.861     -60.255
  N      169.263      47.172     -59.357
  N      170.322      49.104     -60.012
  C      171.036      49.679     -61.010
  C      171.458      49.112     -62.191
  C      171.146      47.717     -62.418
  O      171.524      47.032     -63.366
  N      172.144      50.016     -62.960
  C      172.141      51.126     -62.248
  N      171.522      50.958     -61.035
  O      174.316      54.657     -63.061
  O      171.805      55.103     -63.014
  H      174.230      51.210     -58.148
  H      173.978      54.104     -63.791
  H      170.114      46.219     -61.524
  H      172.598      52.059     -62.553
  H      170.794      51.498     -59.181
  H      173.663      52.300     -59.990
  H      168.950      46.225     -59.497
  H      173.514      53.898     -58.220
  H      168.959      47.662     -58.524
  H      170.706      54.380     -58.700
  H      171.346      55.821     -60.562
  H      172.474      56.063     -59.207
  P      172.598      53.547     -55.869
  C      171.442      55.865     -56.129
  O      172.649      55.130     -56.101
  O      174.133      53.102     -55.931
  O      171.919      53.087     -54.622
  H      174.516      53.071     -55.035
  H      170.582      55.262     -55.820
  H      171.269      56.227     -57.146
  H      171.532      56.721     -55.457
  H      175.093      58.301     -62.653
  H      175.326      56.775     -63.471
  H      175.453      56.862     -61.730

 3  4  5  6  7  8  9  10  11  12  23  26  30  31  33  0
 6-311+G(2d,p)
 ****
 35  36  37  38 0
 6-311+G(2d,p)
 ****
 1  2  13  14  15  16  17  18  19  20  21  22  24  25  27  28  29 0
 3-21G
 ****
 32  34  39  40  41  42  43  44  45  46  47  48  49 0
 3-21G
 ****


