%nproc=1
%NoSave
%Mem=1900MB
#P OB98/GEN NMR

erre ene a

0 1
  C     -894.590    -443.252      86.429
  O     -895.280    -442.909      85.237
  H     -894.580    -444.333      86.528
  H     -895.100    -442.825      87.297
  H     -893.560    -442.898      86.395
  P     -895.340    -441.366      84.792
  C     -895.420    -441.643      82.244
  O     -896.150    -441.331      83.405
  C     -896.110    -442.743      81.434
  O     -895.890    -444.022      82.099
  C     -897.640    -442.556      81.310
  O     -898.050    -442.976      80.012
  C     -898.200    -443.506      82.358
  O     -899.510    -443.932      82.034
  C     -897.160    -444.631      82.343
  N     -896.250    -449.134      84.445
  C     -896.080    -448.723      83.143
  N     -895.630    -449.629      82.247
  N     -896.360    -447.486      82.732
  C     -896.770    -446.675      83.717
  C     -896.970    -446.977      85.060
  C     -896.700    -448.339      85.483
  O     -896.840    -448.767      86.635
  N     -897.440    -445.876      85.744
  C     -897.520    -444.925      84.853
  N     -897.140    -445.363      83.602
  O     -894.050    -440.647      84.779
  O     -896.380    -440.713      85.838
  H     -899.820    -444.499      82.767
  H     -895.890    -440.236      86.545
  H     -896.040    -450.085      84.695
  H     -897.850    -443.916      85.027
  H     -897.350    -445.373      81.554
  H     -898.220    -443.000      83.337
  H     -895.400    -450.576      82.493
  H     -897.960    -441.522      81.484
  H     -895.490    -449.339      81.289
  H     -895.640    -442.817      80.436
  H     -894.420    -441.989      82.551
  H     -895.310    -440.737      81.625
  P     -898.440    -441.859      78.927
  C     -897.950    -443.651      77.138
  O     -898.810    -442.597      77.572
  O     -897.480    -440.714      78.796
  O     -899.880    -441.355      79.458
  H     -900.000    -440.428      79.202
  H     -898.317    -444.055      76.218
  H     -897.926    -444.421      77.881
  H     -896.962    -443.267      76.990

 6  7  8  9  10  11  12  13  14  15  26  29  33  34 0
 6-311+G(2d,p)
 ****
 36  38  39  40  41 0
 6-311+G(2d,p)
 ****
 1  2  3  4  5  16  17  18  19  20  21  22  23  24  25 0
 3-21G
 ****
 27  28  30  31  32  35  37  42  43  44  45  46  47 0
 3-21G
 ****
 48  49 0
 3-21G
 ****


