%nproc=1
%NoSave
%Mem=1900MB
#P OB98/GEN NMR

erre ene a

0 1
  C     -690.448    -148.315     256.533
  O     -690.262    -146.961     256.889
  P     -691.492    -146.060     257.375
  C     -692.082    -145.616     254.854
  O     -692.519    -145.920     256.153
  C     -693.235    -145.860     253.870
  O     -693.608    -147.243     253.869
  C     -694.470    -145.037     254.239
  O     -694.491    -143.811     253.516
  C     -695.612    -145.974     253.884
  O     -695.891    -145.909     252.468
  C     -695.008    -147.349     254.251
  N     -695.071    -147.784     255.655
  C     -696.275    -148.248     256.179
  O     -697.314    -148.353     255.530
  N     -696.258    -148.562     257.519
  C     -695.162    -148.517     258.335
  O     -695.217    -148.570     259.563
  C     -693.882    -148.286     257.664
  C     -693.896    -147.911     256.384
  O     -690.858    -144.599     257.487
  O     -692.145    -146.498     258.643
  H     -695.157    -146.350     252.012
  H     -690.632    -144.400     258.415
  H     -697.161    -148.771     257.934
  H     -692.975    -148.368     258.247
  H     -692.955    -147.696     255.879
  H     -695.458    -148.145     253.642
  H     -696.532    -145.684     254.388
  H     -694.494    -144.852     255.324
  H     -692.899    -145.592     252.852
  H     -691.220    -146.235     254.583
  H     -691.753    -144.573     254.800
  P     -694.873    -142.457     254.278
  C     -697.346    -142.644     253.639
  O     -696.414    -142.623     254.700
  O     -694.536    -141.191     253.558
  O     -694.070    -142.576     255.670
  H     -693.231    -142.074     255.615
  H     -698.319    -142.930     254.034
  H     -697.042    -143.350     252.872
  H     -697.428    -141.636     253.207
  H     -689.510    -148.738     256.238
  H     -691.139    -148.378     255.719
  H     -690.835    -148.854     257.372

 3  4  5  6  7  8  9  10  11  12  13  23  28  29  30  31  32 0
 6-311+G(2d,p)
 ****
 33  34 0
 6-311+G(2d,p)
 ****
 1  2  14  15  16  17  18  19  20  21  22  24  25  26  27 0
 3-21G
 ****
 35  36  37  38  39  40  41  42  43  44  45 0
 3-21G
 ****


