%nproc=1
%NoSave
%Mem=1900MB
#P OB98/GEN NMR

erre ene a

0 1
  C      372.707     712.594    -898.140
  O      373.521     713.431    -897.320
  H      373.349     712.131    -898.900
  H      371.946     713.191    -898.630
  H      372.255     711.804    -897.540
  P      372.788     714.132    -896.070
  C      374.400     713.192    -894.240
  O      373.930     714.343    -894.950
  C      375.866     713.353    -893.840
  O      376.709     713.193    -895.020
  C      376.211     714.746    -893.230
  O      377.207     714.540    -892.220
  C      376.847     715.473    -894.400
  O      377.657     716.567    -893.970
  C      377.606     714.323    -895.080
  N      381.432     715.903    -897.920
  C      381.397     715.619    -896.560
  N      382.526     715.787    -895.850
  N      380.311     715.206    -895.960
  C      379.240     715.052    -896.790
  C      379.176     715.326    -898.160
  C      380.371     715.789    -898.810
  O      380.492     716.068    -900.000
  N      377.916     715.064    -898.640
  C      377.226     714.665    -897.560
  N      377.995     714.650    -896.440
  O      371.890     712.942    -895.470
  O      371.973     715.351    -896.400
  H      377.097     717.146    -893.400
  H      370.985     712.993    -895.850
  H      382.306     716.219    -898.330
  H      376.165     714.387    -897.590
  H      378.523     714.070    -894.540
  H      376.063     715.883    -895.080
  H      383.410     716.036    -896.260
  H      375.353     715.265    -892.810
  H      382.512     715.541    -894.870
  H      376.132     712.544    -893.150
  H      374.296     712.312    -894.910
  H      373.761     713.047    -893.360
  P      377.378     715.661    -891.090
  C      376.749     714.132    -889.060
  O      377.732     714.928    -889.700
  O      375.856     716.113    -890.840
  O      378.241     716.831    -891.470
  H      375.824     717.041    -890.520
  H      377.153     713.725    -888.156
  H      376.456     713.335    -889.711
  H      375.896     714.735    -888.830

 6  7  8  9  10  11  12  13  14  15  26  29  33  34 0
 6-311+G(2d,p)
 ****
 36  38  39  40  41 0
 6-311+G(2d,p)
 ****
 1  2  3  4  5  16  17  18  19  20  21  22  23  24  25 0
 3-21G
 ****
 27  28  30  31  32  35  37  42  43  44  45  46  47 0
 3-21G
 ****
 48  49 0
 3-21G
 ****


