%nproc=1
%NoSave
%Mem=1900MB
#P OB98/GEN NMR

erre ene a

0 1
  C      981.724    2294.681    -157.426
  O      982.462    2294.491    -158.625
  H      980.837    2295.296    -157.666
  H      982.308    2295.211    -156.697
  H      981.390    2293.727    -157.038
  P      983.856    2293.695    -158.544
  C      982.862    2291.590    -159.633
  O      983.488    2292.137    -158.481
  C      982.346    2290.149    -159.344
  O      981.448    2290.270    -158.158
  C      981.530    2289.565    -160.490
  O      982.018    2288.252    -160.887
  C      980.096    2289.675    -160.033
  O      979.199    2288.745    -160.588
  C      980.190    2289.594    -158.519
  N      979.084    2290.242    -157.794
  C      978.051    2289.424    -157.404
  O      977.958    2288.201    -157.603
  N      977.005    2290.030    -156.758
  C      976.924    2291.351    -156.448
  O      975.982    2291.882    -155.849
  C      978.051    2292.214    -156.919
  C      979.069    2291.622    -157.570
  O      984.801    2294.167    -157.490
  O      984.485    2293.868    -159.997
  H      979.485    2287.850    -160.308
  H      985.197    2294.536    -159.986
  H      976.223    2289.452    -156.461
  H      978.033    2293.253    -156.722
  H      979.932    2292.181    -157.879
  H      980.245    2288.574    -158.187
  H      979.720    2290.677    -160.324
  H      981.666    2290.163    -161.404
  H      983.189    2289.523    -159.057
  H      983.618    2291.569    -160.442
  H      982.032    2292.213    -159.948
  P      983.287    2288.006    -161.824
  C      984.665    2286.697    -159.993
  O      984.564    2287.827    -160.871
  O      983.411    2288.935    -162.952
  O      983.017    2286.518    -162.396
  H      983.398    2286.521    -163.278
  H      985.581    2286.754    -159.443
  H      984.650    2285.795    -160.569
  H      983.839    2286.699    -159.313

 6  7  8  9  10  11  12  13  14  15  16  26  31  32  33  34  35 0
 6-311+G(2d,p)
 ****
 36  37 0
 6-311+G(2d,p)
 ****
 1  2  3  4  5  17  18  19  20  21  22  23  24  25 0
 3-21G
 ****
 27  28  29  30  38  39  40  41  42  43  44  45 0
 3-21G
 ****


