%nproc=1
%NoSave
%Mem=1900MB
#P OB98/GEN NMR

erre ene a

0 1
  C      460.953     622.829      -9.247
  O      462.338     622.779      -9.625
  P      462.802     621.443     -10.391
  C      463.298     622.651     -12.640
  O      462.525     621.668     -11.970
  C      463.235     622.465     -14.157
  O      463.623     621.110     -14.528
  C      461.835     622.697     -14.750
  O      462.011     623.294     -16.043
  C      461.306     621.275     -14.866
  O      460.167     621.181     -15.729
  C      462.579     620.580     -15.345
  N      463.270     616.159     -17.818
  C      463.404     617.453     -18.203
  N      463.204     618.580     -17.492
  C      462.810     618.270     -16.240
  C      462.637     616.993     -15.694
  C      462.879     615.896     -16.548
  N      462.725     614.589     -16.151
  N      462.205     617.089     -14.373
  C      462.064     618.389     -14.168
  N      462.506     619.127     -15.220
  O      461.691     620.373      -9.961
  O      464.176     621.011     -10.047
  H      459.875     620.264     -15.760
  H      462.030     619.808      -9.253
  H      463.741     617.599     -19.233
  H      461.662     618.844     -13.278
  H      462.804     620.793     -16.389
  H      460.985     620.920     -13.894
  H      461.196     623.367     -14.137
  H      463.963     623.170     -14.619
  H      464.341     622.594     -12.311
  H      462.927     613.881     -16.843
  H      462.428     614.379     -15.223
  H      462.953     623.651     -12.350
  P      462.369     624.858     -16.120
  C      464.768     624.426     -16.923
  O      463.951     624.930     -15.872
  O      461.798     625.385     -14.709
  O      461.813     625.586     -17.313
  H      462.125     624.831     -14.011
  H      465.820     624.618     -16.657
  H      464.549     624.960     -17.868
  H      464.610     623.361     -17.039
  H      460.753     623.754      -8.748
  H      460.733     622.014      -8.590
  H      460.342     622.757     -10.122

 3  4  5  6  7  8  9  10  11  12  22  25  29  30  31  32 0
 6-311+G(2d,p)
 ****
 33  36  37 0
 6-311+G(2d,p)
 ****
 1  2  13  14  15  16  17  18  19  20  21  23  24  26 0
 3-21G
 ****
 27  28  34  35  38  39  40  41  42  43  44  45  46  47  48 0
 3-21G
 ****


