%nproc=1
%NoSave
%Mem=1900MB
#P OB98/GEN NMR

erre ene a

0 1
  C      107.752     413.350      26.447
  O      106.786     414.353      26.723
  P      105.925     414.921      25.494
  C      103.963     413.245      25.665
  O      105.086     413.677      24.914
  C      102.664     413.763      25.049
  O      102.635     413.404      23.642
  C      101.389     413.200      25.698
  O      100.438     414.265      25.869
  C      100.841     412.260      24.636
  O       99.434     412.082      24.758
  C      101.285     412.981      23.365
  N      101.333     413.174      18.317
  C      101.671     414.142      19.243
  N      102.018     415.351      18.746
  N      101.671     413.947      20.533
  C      101.335     412.686      20.888
  C      100.989     411.635      20.065
  C      100.935     411.882      18.639
  O      100.558     411.092      17.779
  N      100.728     410.498      20.791
  C      100.912     410.860      22.046
  N      101.235     412.189      22.159
  O      107.037     415.187      24.374
  O      105.140     416.152      25.783
  H       99.146     411.548      23.993
  H      106.995     416.118      24.083
  H      101.336     413.380      17.336
  H      100.793     410.207      22.901
  H      100.673     413.879      23.204
  H      101.328     411.282      24.738
  H      102.078     415.560      17.760
  H      101.557     412.696      26.653
  H      102.292     416.068      19.404
  H      102.670     414.859      25.097
  H      104.046     413.618      26.691
  H      103.953     412.150      25.691
  P       99.335     414.038      27.014
  C      100.657     415.394      28.806
  O      100.120     414.145      28.402
  O       98.987     412.480      26.891
  O       98.133     414.911      26.874
  H       98.091     412.304      27.241
  H      100.314     416.211      28.166
  H      101.745     415.343      28.768
  H      100.342     415.599      29.835
  H      108.245     413.070      27.355
  H      108.472     413.730      25.753
  H      107.267     412.494      26.026

 3  4  5  6  7  8  9  10  11  12  23  26  30  31  33  0
 6-311+G(2d,p)
 ****
 35  36  37  38 0
 6-311+G(2d,p)
 ****
 1  2  13  14  15  16  17  18  19  20  21  22  24  25  27  28  29 0
 3-21G
 ****
 32  34  39  40  41  42  43  44  45  46  47  48  49 0
 3-21G
 ****


