%nproc=1
%NoSave
%Mem=1900MB
#P OB98/GEN NMR

erre ene a

0 1
  C       -2.663    -222.312      47.044
  O       -3.164    -222.475      45.715
  P       -4.627    -221.872      45.430
  C       -3.898    -219.449      44.867
  O       -4.465    -220.659      44.388
  C       -3.928    -218.352      43.796
  O       -3.408    -218.847      42.522
  C       -5.333    -217.796      43.518
  O       -5.178    -216.405      43.213
  C       -5.745    -218.541      42.260
  O       -6.817    -217.879      41.588
  C       -4.405    -218.555      41.515
  N       -4.406    -219.115      36.499
  C       -4.580    -217.983      37.263
  N       -4.721    -216.816      36.599
  N       -4.607    -217.989      38.572
  C       -4.412    -219.220      39.109
  C       -4.218    -220.417      38.454
  C       -4.220    -220.400      37.005
  O       -4.067    -221.374      36.277
  N       -4.020    -221.453      39.342
  C       -4.171    -220.880      40.527
  N       -4.349    -219.524      40.439
  O       -4.992    -221.146      46.809
  O       -5.641    -222.904      45.059
  H       -6.462    -217.033      41.233
  H       -5.593    -221.705      47.336
  H       -4.413    -219.055      35.490
  H       -4.132    -221.395      41.473
  H       -4.169    -217.582      41.067
  H       -6.065    -219.559      42.507
  H       -4.659    -216.732      35.590
  H       -6.042    -217.930      44.341
  H       -4.808    -215.961      37.137
  H       -3.267    -217.535      44.120
  H       -2.861    -219.617      45.175
  H       -4.433    -219.133      45.768
  P       -6.238    -215.375      43.838
  C       -5.090    -215.086      46.142
  O       -5.451    -214.484      44.915
  O       -7.167    -216.323      44.741
  O       -7.051    -214.625      42.833
  H       -8.095    -216.023      44.673
  H       -4.211    -214.569      46.542
  H       -4.843    -216.147      46.018
  H       -5.913    -214.990      46.859
  H       -1.689    -222.749      47.114
  H       -3.322    -222.795      47.735
  H       -2.603    -221.269      47.277

 3  4  5  6  7  8  9  10  11  12  23  26  30  31 0
 6-311+G(2d,p)
 ****
 33  35  36  37  38 0
 6-311+G(2d,p)
 ****
 1  2  13  14  15  16  17  18  19  20  21  22  24  25 0
 3-21G
 ****
 27  28  29  32  34  39  40  41  42  43  44  45  46  47  48  49 0
 3-21G
 ****


