%nproc=1
%NoSave
%Mem=1900MB
#P OB98/GEN NMR

erre ene a

0 1
  C      211.397    -159.487     -98.129
  O      212.620    -160.198     -98.116
  H      210.669    -160.050     -98.723
  H      211.532    -158.498     -98.584
  H      211.016    -159.380     -97.111
  P      213.837    -159.516     -97.325
  C      214.792    -158.221     -99.338
  O      214.096    -158.136     -98.101
  C      215.786    -157.064     -99.477
  O      215.100    -155.821     -99.173
  C      216.985    -157.178     -98.525
  O      218.157    -156.716     -99.201
  C      216.643    -156.216     -97.404
  O      217.790    -155.723     -96.721
  C      215.836    -155.141     -98.142
  N      214.325    -150.529     -96.569
  C      215.150    -150.922     -97.561
  N      215.486    -152.174     -97.925
  C      214.833    -153.077     -97.170
  C      213.961    -152.834     -96.124
  C      213.712    -151.483     -95.817
  N      212.890    -151.074     -94.792
  N      213.523    -154.024     -95.562
  C      214.115    -154.972     -96.278
  N      214.927    -154.445     -97.250
  O      215.044    -160.376     -97.135
  O      213.123    -159.033     -95.978
  H      218.357    -155.247     -97.366
  H      212.259    -158.616     -96.163
  H      215.610    -150.116     -98.137
  H      213.997    -156.038     -96.118
  H      216.481    -154.384     -98.604
  H      216.008    -156.730     -96.661
  H      217.138    -158.191     -98.160
  H      216.113    -157.003    -100.516
  H      214.080    -158.193    -100.178
  H      212.757    -150.089     -94.654
  H      212.411    -151.771     -94.239
  H      215.316    -159.178     -99.357
  P      219.157    -157.815     -99.820
  C      220.992    -157.546     -98.008
  O      220.053    -158.425     -98.629
  O      219.911    -157.389    -101.034
  O      218.167    -159.029    -100.151
  H      218.458    -159.451    -100.990
  H      221.518    -158.072     -97.239
  H      220.473    -156.714     -97.580
  H      221.688    -157.193     -98.740

 6  7  8  9  10  11  12  13  14  15  25  28  32  33  34  35 0
 6-311+G(2d,p)
 ****
 36  39  40 0
 6-311+G(2d,p)
 ****
 1  2  3  4  5  16  17  18  19  20  21  22  23  24 0
 3-21G
 ****
 26  27  29  30  31  37  38  41  42  43  44  45  46  47 0
 3-21G
 ****
 48 0
 3-21G
 ****


