%nproc=1
%NoSave
%Mem=1900MB
#P OB98/GEN NMR

erre ene a

0 1
  C     -573.647     233.935     453.348
  O     -573.162     232.632     453.067
  P     -573.929     231.828     451.895
  C     -572.176     232.611     450.121
  O     -572.826     231.531     450.757
  C     -570.824     232.143     449.557
  O     -569.979     231.683     450.638
  C     -570.936     230.967     448.571
  O     -571.267     231.425     447.286
  C     -569.523     230.369     448.657
  O     -568.602     231.106     447.853
  C     -569.211     230.547     450.153
  N     -567.787     225.805     451.332
  C     -567.326     226.651     450.333
  N     -566.327     226.195     449.557
  N     -567.811     227.856     450.103
  C     -568.838     228.162     450.959
  C     -569.390     227.429     451.962
  C     -568.800     226.115     452.243
  O     -569.096     225.390     453.167
  N     -570.410     228.082     452.575
  C     -570.460     229.248     451.954
  N     -569.524     229.353     450.966
  O     -574.869     232.942     451.236
  O     -574.710     230.619     452.351
  H     -568.824     230.976     446.890
  H     -575.801     232.872     451.583
  H     -567.358     224.903     451.469
  H     -571.162     230.052     452.201
  H     -568.141     230.755     450.326
  H     -569.504     229.327     448.307
  H     -565.907     225.259     449.666
  H     -571.660     230.235     448.929
  H     -565.985     226.773     448.816
  H     -570.320     232.998     449.079
  H     -571.978     233.401     450.853
  H     -572.801     233.001     449.318
  P     -572.461     230.700     446.511
  C     -574.637     231.772     447.477
  O     -573.697     231.734     446.414
  O     -572.980     229.604     447.565
  O     -572.063     230.057     445.209
  H     -573.236     228.776     447.089
  H     -575.026     232.767     447.541
  H     -574.188     231.495     448.438
  H     -575.447     231.071     447.257
  H     -573.067     234.369     454.136
  H     -574.672     233.877     453.650
  H     -573.568     234.542     452.470

 3  4  5  6  7  8  9  10  11  12  23  26  30  31 0
 6-311+G(2d,p)
 ****
 33  35  36  37  38 0
 6-311+G(2d,p)
 ****
 1  2  13  14  15  16  17  18  19  20  21  22  24  25 0
 3-21G
 ****
 27  28  29  32  34  39  40  41  42  43  44  45  46  47  48  49 0
 3-21G
 ****


