%nproc=1
%NoSave
%Mem=1900MB
#P OB98/GEN NMR

erre ene a

0 1
  C     -890.060    -895.520    -895.584
  O     -891.460    -895.540    -895.441
  P     -892.390    -895.480    -896.748
  C     -893.760    -897.700    -896.557
  O     -893.770    -896.260    -896.497
  C     -894.820    -898.280    -895.648
  O     -894.550    -897.950    -894.243
  C     -896.210    -897.740    -895.927
  O     -896.800    -898.130    -897.146
  C     -896.960    -898.070    -894.637
  O     -897.420    -899.440    -894.627
  C     -895.850    -897.890    -893.562
  N     -895.980    -896.640    -892.825
  C     -897.080    -896.580    -891.954
  O     -897.910    -897.470    -891.882
  N     -897.190    -895.370    -891.250
  C     -896.370    -894.290    -891.346
  O     -896.540    -893.270    -890.692
  C     -895.220    -894.420    -892.272
  C     -895.100    -895.570    -892.969
  O     -891.730    -895.820    -898.036
  O     -892.880    -893.950    -896.762
  H     -896.610    -900.000    -894.678
  H     -892.860    -893.630    -897.687
  H     -897.980    -895.310    -890.610
  H     -894.570    -893.590    -892.374
  H     -894.260    -895.680    -893.651
  H     -895.870    -898.710    -892.853
  H     -897.840    -897.430    -894.487
  H     -896.130    -896.650    -895.968
  H     -894.780    -899.370    -895.696
  H     -892.760    -898.050    -896.257
  H     -893.910    -898.000    -897.605
  P     -897.920    -897.290    -897.877
  C     -896.750    -896.320    -899.970
  O     -897.620    -897.280    -899.458
  O     -898.370    -896.020    -897.290
  O     -899.190    -898.320    -897.807
  H     -900.000    -897.780    -897.737
  H     -896.630    -896.450    -901.017
  H     -895.750    -896.400    -899.512
  H     -897.150    -895.290    -899.740
  H     -889.602    -895.566    -894.618
  H     -889.765    -894.617    -896.076
  H     -889.749    -896.362    -896.167

 3  4  5  6  7  8  9  10  11  12  13  23  28  29  30  31  32 0
 6-311+G(2d,p)
 ****
 33  34 0
 6-311+G(2d,p)
 ****
 1  2  14  15  16  17  18  19  20  21  22  24  25  26  27 0
 3-21G
 ****
 35  36  37  38  39  40  41  42  43  44  45 0
 3-21G
 ****


