%nproc=1
%NoSave
%Mem=1900MB
#P OB98/GEN NMR

erre ene a

0 1
  C      -23.540      84.302     -70.199
  O      -24.643      83.429     -70.339
  H      -23.914      85.306     -69.987
  H      -22.966      84.329     -71.129
  H      -22.900      83.979     -69.373
  P      -24.310      81.861     -70.472
  C      -24.721      81.181     -67.971
  O      -25.161      81.144     -69.317
  C      -25.915      81.278     -67.020
  O      -26.689      82.454     -67.363
  C      -26.851      80.070     -67.079
  O      -27.333      79.804     -65.760
  C      -27.992      80.546     -67.962
  O      -29.192      79.815     -67.720
  C      -28.048      82.041     -67.614
  N      -28.659      82.836     -68.677
  C      -30.022      82.629     -68.913
  O      -30.645      81.795     -68.255
  N      -30.637      83.337     -69.914
  C      -29.937      84.131     -70.664
  N      -30.601      84.789     -71.653
  C      -28.487      84.340     -70.486
  C      -27.921      83.677     -69.480
  O      -22.805      81.804     -69.931
  O      -24.498      81.311     -71.846
  H      -29.928      80.278     -68.180
  H      -22.650      82.363     -69.152
  H      -27.945      85.001     -71.147
  H      -26.861      83.777     -69.272
  H      -28.620      82.201     -66.691
  H      -27.726      80.414     -69.018
  H      -26.379      79.176     -67.484
  H      -25.537      81.437     -66.004
  H      -31.591      84.603     -71.754
  H      -24.059      82.037     -67.811
  H      -30.149      85.389     -72.326
  H      -24.153      80.267     -67.774
  P      -27.511      78.285     -65.284
  C      -25.150      78.287     -64.248
  O      -26.527      78.008     -64.046
  O      -27.473      77.257     -66.363
  O      -28.953      78.303     -64.572
  H      -29.407      77.466     -64.793
  H      -24.606      78.062     -63.355
  H      -25.027      79.322     -64.489
  H      -24.779      77.687     -65.053

 6  7  8  9  10  11  12  13  14  15  16  26  30  31  32  33  35 0
 6-311+G(2d,p)
 ****
 37  38 0
 6-311+G(2d,p)
 ****
 1  2  3  4  5  17  18  19  20  21  22  23  24  25 0
 3-21G
 ****
 27  28  29  34  36  39  40  41  42  43  44  45  46 0
 3-21G
 ****


