%nproc=1
%NoSave
%Mem=1900MB
#P OB98/GEN NMR

erre ene a

0 1
  C      -25.744     -38.452     -24.108
  O      -26.826     -39.364     -24.074
  P      -28.075     -39.091     -23.110
  C      -27.288     -40.888     -21.400
  O      -27.636     -39.541     -21.637
  C      -27.885     -41.391     -20.080
  O      -27.360     -40.566     -19.011
  C      -29.404     -41.284     -19.981
  O      -29.852     -42.142     -18.930
  C      -29.587     -39.840     -19.571
  O      -30.862     -39.604     -18.981
  C      -28.370     -39.597     -18.643
  N      -27.844     -38.228     -18.787
  C      -28.548     -37.213     -18.146
  O      -29.519     -37.425     -17.422
  N      -28.149     -35.936     -18.433
  C      -27.168     -35.596     -19.318
  O      -27.034     -34.474     -19.791
  C      -26.313     -36.703     -19.772
  C      -26.699     -37.955     -19.512
  O      -29.121     -40.216     -23.558
  O      -28.656     -37.722     -23.207
  H      -30.892     -38.649     -18.741
  H      -29.761     -39.847     -24.194
  H      -28.750     -35.199     -18.083
  H      -25.434     -36.463     -20.354
  H      -26.115     -38.794     -19.879
  H      -28.635     -39.748     -17.589
  H      -29.512     -39.203     -20.462
  H      -29.931     -41.516     -20.911
  H      -27.558     -42.422     -19.902
  H      -26.199     -40.982     -21.392
  H      -27.648     -41.522     -22.218
  P      -31.045     -43.164     -19.253
  C      -32.978     -41.885     -18.148
  O      -32.378     -42.280     -19.366
  O      -31.140     -44.360     -18.366
  O      -30.764     -43.575     -20.778
  H      -31.236     -44.401     -20.988
  H      -33.498     -40.936     -18.303
  H      -32.234     -41.757     -17.357
  H      -33.705     -42.642     -17.843
  H      -25.008     -38.797     -24.804
  H      -25.307     -38.380     -23.134
  H      -26.099     -37.489     -24.412

 3  4  5  6  7  8  9  10  11  12  13  23  28  29  30  31  32 0
 6-311+G(2d,p)
 ****
 33  34 0
 6-311+G(2d,p)
 ****
 1  2  14  15  16  17  18  19  20  21  22  24  25  26  27 0
 3-21G
 ****
 35  36  37  38  39  40  41  42  43  44  45 0
 3-21G
 ****


