%nproc=1
%NoSave
%Mem=1900MB
#P OB98/GEN NMR

erre ene a

0 1
  C      179.353       8.158      54.831
  O      179.780       6.902      54.339
  H      178.520       8.509      54.217
  H      180.161       8.892      54.781
  H      179.008       8.057      55.864
  P      181.163       6.303      54.891
  C      182.354       7.611      53.014
  O      182.297       7.339      54.412
  C      183.518       8.543      52.679
  O      183.354       9.821      53.331
  C      184.875       8.039      53.148
  O      185.332       6.880      52.489
  C      185.714       9.306      53.095
  O      186.204       9.581      51.783
  C      184.676      10.378      53.508
  N      184.881      10.851      54.873
  C      185.824      11.860      55.032
  O      186.481      12.332      54.103
  N      186.020      12.296      56.314
  C      185.412      11.801      57.430
  O      185.648      12.222      58.557
  C      184.454      10.707      57.204
  C      184.233      10.289      55.954
  O      181.447       4.878      54.520
  O      181.088       6.555      56.470
  H      186.806       8.851      51.546
  H      181.763       6.015      56.950
  H      186.689      13.039      56.450
  H      183.962      10.280      58.067
  H      183.527       9.484      55.762
  H      184.738      11.245      52.837
  H      186.579       9.254      53.760
  H      184.791       7.767      54.208
  H      183.511       8.719      51.597
  H      181.413       8.093      52.729
  H      182.452       6.671      52.463
  P      186.033       5.657      53.236
  C      188.472       6.566      52.980
  O      187.423       6.164      53.854
  O      186.018       4.342      52.523
  O      185.113       5.508      54.555
  H      185.081       4.555      54.777
  H      189.319       6.872      53.557
  H      188.139       7.383      52.375
  H      188.747       5.745      52.351

 6  7  8  9  10  11  12  13  14  15  16  26  31  32  33  34  35 0
 6-311+G(2d,p)
 ****
 36  37 0
 6-311+G(2d,p)
 ****
 1  2  3  4  5  17  18  19  20  21  22  23  24  25 0
 3-21G
 ****
 27  28  29  30  38  39  40  41  42  43  44  45 0
 3-21G
 ****


