%nproc=1
%NoSave
%Mem=1900MB
#P OB98/GEN NMR

erre ene a

0 1
  C       96.617      91.111      51.449
  O       96.091      90.010      52.198
  P       95.589      88.703      51.417
  C       97.634      87.253      50.813
  O       96.585      87.485      51.741
  C       98.861      86.636      51.510
  O       99.360      87.546      52.524
  C       98.545      85.292      52.192
  O       99.461      84.255      51.835
  C       98.492      85.650      53.670
  O       98.738      84.539      54.521
  C       99.469      86.828      53.771
  N       99.188      87.681      54.930
  C      100.120      87.652      55.965
  O      101.094      86.904      55.977
  N       99.850      88.472      57.029
  C       98.740      89.243      57.189
  O       98.526      89.924      58.184
  C       97.758      89.184      56.093
  C       98.027      88.415      55.029
  O       95.266      88.894      49.970
  O       94.265      88.287      52.236
  H       99.666      84.252      54.390
  H       93.597      87.975      51.593
  H      100.524      88.478      57.779
  H       96.852      89.761      56.193
  H       97.318      88.347      54.213
  H      100.500      86.476      53.872
  H       97.482      86.014      53.902
  H       97.570      84.901      51.880
  H       99.636      86.505      50.748
  H       97.932      88.196      50.353
  H       97.266      86.620      49.997
  P       99.038      82.749      51.500
  C       98.383      83.243      49.040
  O       99.215      82.516      49.926
  O       97.722      82.302      52.060
  O      100.233      81.884      52.137
  H       99.859      81.083      52.562
  H       98.358      82.725      48.077
  H       98.802      84.244      48.886
  H       97.358      83.333      49.423
  H       96.903      91.894      52.119
  H       95.869      91.474      50.775
  H       97.472      90.788      50.893

 3  4  5  6  7  8  9  10  11  12  13  23  28  29  30  31  32 0
 6-311+G(2d,p)
 ****
 33  34 0
 6-311+G(2d,p)
 ****
 1  2  14  15  16  17  18  19  20  21  22  24  25  26  27 0
 3-21G
 ****
 35  36  37  38  39  40  41  42  43  44  45 0
 3-21G
 ****


