%nproc=1
%NoSave
%Mem=1900MB
#P OB98/GEN NMR

erre ene a

0 1
  C      -26.949     266.739      94.333
  O      -27.683     265.969      95.286
  P      -27.583     266.350      96.840
  C      -26.712     264.136      97.830
  O      -26.404     265.485      97.507
  C      -25.623     263.530      98.732
  O      -26.073     262.259      99.291
  C      -24.317     263.251      97.972
  O      -23.184     263.434      98.834
  C      -24.424     261.773      97.652
  O      -23.144     261.199      97.377
  C      -25.106     261.255      98.917
  N      -24.417     256.306      97.783
  C      -23.538     257.316      97.973
  N      -23.793     258.603      98.296
  C      -25.114     258.805      98.436
  C      -26.130     257.870      98.287
  C      -25.738     256.566      97.933
  N      -26.635     255.546      97.711
  N      -27.366     258.448      98.500
  C      -27.102     259.718      98.730
  N      -25.757     259.976      98.736
  O      -28.871     266.346      97.591
  O      -26.945     267.822      96.802
  H      -23.271     260.240      97.285
  H      -27.396     268.383      97.462
  H      -22.489     257.056      97.845
  H      -27.845     260.489      98.887
  H      -24.398     261.154      99.746
  H      -25.062     261.629      96.768
  H      -24.180     263.860      97.073
  H      -25.441     264.205      99.575
  H      -26.806     263.549      96.915
  H      -26.270     254.678      97.351
  H      -27.621     255.765      97.671
  H      -27.696     264.097      98.314
  P      -22.743     264.960      99.107
  C      -21.140     265.202      97.057
  O      -22.353     265.564      97.675
  O      -21.719     265.100     100.187
  O      -24.146     265.648      99.458
  H      -24.860     265.474      98.820
  H      -21.119     265.613      96.044
  H      -21.042     264.114      96.991
  H      -20.293     265.615      97.615
  H      -27.127     266.354      93.351
  H      -25.904     266.680      94.556
  H      -27.266     267.760      94.379

 3  4  5  6  7  8  9  10  11  12  22  25  29  30  31  32 0
 6-311+G(2d,p)
 ****
 33  36  37 0
 6-311+G(2d,p)
 ****
 1  2  13  14  15  16  17  18  19  20  21  23  24  26 0
 3-21G
 ****
 27  28  34  35  38  39  40  41  42  43  44  45  46  47  48 0
 3-21G
 ****


