%nproc=1
%NoSave
%Mem=1900MB
#P OB98/GEN NMR

erre ene a

0 1
  C     -391.854     271.042     130.890
  O     -392.786     271.568     129.969
  H     -391.258     271.862     131.295
  H     -391.186     270.333     130.395
  H     -392.379     270.546     131.713
  P     -393.700     270.513     129.178
  C     -396.022     271.673     129.094
  O     -395.199     270.698     129.716
  C     -397.166     272.046     130.033
  O     -396.657     272.824     131.143
  C     -398.237     272.914     129.393
  O     -399.141     272.171     128.589
  C     -398.911     273.502     130.621
  O     -399.904     272.618     131.157
  C     -397.730     273.671     131.597
  N     -397.319     275.067     131.710
  C     -397.851     275.770     132.787
  O     -398.622     275.268     133.606
  N     -397.501     277.089     132.873
  C     -396.729     277.772     131.979
  O     -396.498     278.969     132.084
  C     -396.206     276.983     130.851
  C     -396.522     275.686     130.764
  O     -393.243     269.105     129.789
  O     -393.560     270.550     127.692
  H     -392.700     268.625     129.140
  H     -399.434     271.785     131.371
  H     -397.877     277.617     133.647
  H     -395.591     277.493     130.120
  H     -396.162     275.090     129.937
  H     -398.007     273.317     132.598
  H     -399.406     274.441     130.385
  H     -397.775     273.728     128.815
  H     -397.607     271.122     130.431
  H     -396.445     271.266     128.170
  H     -395.418     272.549     128.846
  P     -399.193     272.507     127.015
  C     -399.878     270.024     126.475
  O     -398.979     271.102     126.267
  O     -397.804     273.278     126.836
  O     -400.404     273.276     126.621
  H     -397.144     273.000     127.497
  H     -399.567     269.182     125.892
  H     -400.863     270.319     126.178
  H     -399.882     269.758     127.511

 6  7  8  9  10  11  12  13  14  15  16  27  31  32  33  34  35 0
 6-311+G(2d,p)
 ****
 36  37 0
 6-311+G(2d,p)
 ****
 1  2  3  4  5  17  18  19  20  21  22  23  24  25 0
 3-21G
 ****
 26  28  29  30  38  39  40  41  42  43  44  45 0
 3-21G
 ****


