%nproc=1
%NoSave
%Mem=1900MB
#P OB98/GEN NMR

erre ene a

0 1
  C      240.346    -101.509    -189.417
  O      240.917    -102.673    -189.985
  H      241.033    -100.672    -189.566
  H      240.191    -101.651    -188.343
  H      239.396    -101.278    -189.905
  P      240.080    -104.032    -189.813
  C      241.171    -104.207    -187.466
  O      239.978    -104.302    -188.233
  C      241.075    -105.077    -186.217
  O      240.329    -104.403    -185.180
  C      240.396    -106.425    -186.440
  O      241.314    -107.378    -186.949
  C      239.924    -106.756    -185.031
  O      241.007    -107.288    -184.235
  C      239.488    -105.380    -184.505
  N      234.750    -106.993    -183.851
  C      235.948    -107.617    -183.576
  N      235.879    -108.873    -183.074
  N      237.118    -107.071    -183.781
  C      237.037    -105.839    -184.337
  C      235.910    -105.115    -184.660
  C      234.625    -105.713    -184.375
  O      233.527    -105.177    -184.519
  N      236.242    -103.891    -185.189
  C      237.559    -103.892    -185.220
  N      238.089    -105.055    -184.718
  O      241.098    -105.164    -190.314
  O      238.794    -104.092    -190.567
  H      240.672    -107.501    -183.346
  H      240.596    -105.845    -190.800
  H      233.881    -107.451    -183.643
  H      238.177    -103.078    -185.583
  H      239.674    -105.276    -183.431
  H      239.142    -107.519    -185.035
  H      235.051    -109.441    -183.172
  H      239.523    -106.322    -187.099
  H      236.760    -109.356    -182.944
  H      242.094    -105.221    -185.836
  H      241.320    -103.162    -187.170
  H      242.017    -104.530    -188.079
  P      240.832    -108.332    -188.144
  C      240.835    -110.576    -186.834
  O      240.062    -109.584    -187.498
  O      242.205    -108.965    -188.672
  O      240.107    -107.633    -189.248
  H      242.456    -108.555    -189.517
  H      240.187    -111.341    -186.459
  H      241.367    -110.128    -186.021
  H      241.532    -111.005    -187.523

 6  7  8  9  10  11  12  13  14  15  26  29  33  34 0
 6-311+G(2d,p)
 ****
 36  38  39  40  41 0
 6-311+G(2d,p)
 ****
 1  2  3  4  5  16  17  18  19  20  21  22  23  24  25 0
 3-21G
 ****
 27  28  30  31  32  35  37  42  43  44  45  46  47 0
 3-21G
 ****
 48  49 0
 3-21G
 ****


