%nproc=1
%NoSave
%Mem=1900MB
#P OB98/GEN NMR

erre ene a

0 1
  C     -734.625    -348.372    1505.999
  O     -735.342    -348.564    1504.798
  H     -733.633    -348.813    1505.888
  H     -735.139    -348.856    1506.828
  H     -734.508    -347.298    1506.205
  P     -736.865    -348.062    1504.709
  C     -737.666    -350.495    1504.381
  O     -737.665    -349.168    1503.878
  C     -738.041    -351.488    1503.283
  O     -739.413    -351.211    1502.880
  C     -737.147    -351.361    1502.030
  O     -736.561    -352.598    1501.637
  C     -738.035    -350.635    1501.037
  O     -737.721    -350.877    1499.687
  C     -739.440    -351.061    1501.458
  N     -740.497    -350.109    1501.064
  C     -740.979    -350.204    1499.763
  O     -740.624    -351.017    1498.913
  N     -741.960    -349.279    1499.432
  C     -742.447    -348.311    1500.244
  O     -743.312    -347.522    1499.893
  C     -741.879    -348.249    1501.606
  C     -740.926    -349.137    1501.936
  O     -737.035    -346.660    1504.237
  O     -737.424    -348.252    1506.199
  H     -738.110    -351.750    1499.450
  H     -737.479    -347.385    1506.642
  H     -742.324    -349.351    1498.491
  H     -742.241    -347.477    1502.266
  H     -740.485    -349.130    1502.926
  H     -739.703    -352.022    1501.004
  H     -737.926    -349.545    1501.196
  H     -736.277    -350.734    1502.261
  H     -738.021    -352.506    1503.688
  H     -738.392    -350.545    1505.202
  H     -736.664    -350.733    1504.778
  P     -735.007    -352.857    1501.416
  C     -735.209    -353.234    1498.808
  O     -734.823    -353.728    1500.092
  O     -734.237    -353.285    1502.614
  O     -734.438    -351.406    1500.956
  H     -733.526    -351.355    1501.295
  H     -735.000    -353.974    1498.064
  H     -734.659    -352.342    1498.589
  H     -736.257    -353.016    1498.810

 6  7  8  9  10  11  12  13  14  15  16  26  31  32  33  34  35 0
 6-311+G(2d,p)
 ****
 36  37 0
 6-311+G(2d,p)
 ****
 1  2  3  4  5  17  18  19  20  21  22  23  24  25 0
 3-21G
 ****
 27  28  29  30  38  39  40  41  42  43  44  45 0
 3-21G
 ****


