%nproc=1
%NoSave
%Mem=1900MB
#P OB98/GEN NMR

erre ene a

0 1
  C      -17.760    -100.999     -14.241
  O      -18.484    -100.184     -15.132
  P      -19.133     -98.782     -14.728
  C      -21.504     -98.027     -13.914
  O      -20.526     -99.057     -13.982
  C      -22.312     -98.115     -12.610
  O      -21.387     -98.113     -11.490
  C      -23.234     -96.892     -12.429
  O      -24.530     -97.208     -11.933
  C      -22.377     -95.940     -11.599
  O      -23.128     -94.942     -10.921
  C      -21.603     -96.913     -10.714
  N      -19.095     -93.139      -8.394
  C      -20.457     -93.356      -8.477
  N      -21.250     -92.348      -8.040
  N      -20.989     -94.447      -8.972
  C      -20.076     -95.319      -9.471
  C      -18.703     -95.210      -9.443
  C      -18.129     -94.018      -8.864
  O      -16.929     -93.730      -8.876
  N      -18.097     -96.251     -10.108
  C      -19.104     -96.973     -10.561
  N      -20.326     -96.428     -10.228
  O      -19.087     -97.697     -15.756
  O      -18.180     -98.327     -13.498
  H      -22.506     -94.431     -10.366
  H      -18.113     -97.350     -13.535
  H      -18.747     -92.239      -8.076
  H      -19.009     -97.874     -11.158
  H      -22.178     -97.190      -9.827
  H      -21.701     -95.417     -12.290
  H      -20.869     -91.444      -7.794
  H      -23.444     -96.423     -13.398
  H      -22.227     -92.378      -8.317
  H      -22.862     -99.062     -12.592
  H      -22.167     -98.172     -14.778
  H      -21.036     -97.043     -14.012
  P      -25.741     -96.223     -11.591
  C      -26.262     -94.387      -9.869
  O      -25.427     -95.486     -10.203
  O      -26.966     -97.182     -11.216
  O      -26.129     -95.303     -12.702
  H      -27.796     -96.818     -11.584
  H      -25.785     -93.812      -9.065
  H      -27.231     -94.756      -9.517
  H      -26.412     -93.733     -10.735
  H      -17.431    -101.880     -14.751
  H      -18.388    -101.276     -13.420
  H      -16.911    -100.461     -13.875

 3  4  5  6  7  8  9  10  11  12  23  26  30  31 0
 6-311+G(2d,p)
 ****
 33  35  36  37  38 0
 6-311+G(2d,p)
 ****
 1  2  13  14  15  16  17  18  19  20  21  22  24  25 0
 3-21G
 ****
 27  28  29  32  34  39  40  41  42  43  44  45  46  47  48  49 0
 3-21G
 ****


