%nproc=1
%NoSave
%Mem=1900MB
#P OB98/GEN NMR

erre ene a

0 1
  C       -1.563      -6.275     -93.088
  O       -1.558      -6.063     -94.490
  P       -2.633      -6.778     -95.431
  C       -3.234      -6.706     -97.986
  O       -2.462      -6.213     -96.913
  C       -2.878      -5.921     -99.255
  O       -3.359      -4.565     -99.153
  C       -1.368      -5.871     -99.479
  O       -0.958      -6.910    -100.353
  C       -1.165      -4.482    -100.053
  O       -1.462      -4.471    -101.462
  C       -2.225      -3.665     -99.276
  N       -1.877      -3.181     -97.927
  C       -0.842      -2.264     -97.770
  O       -0.200      -1.794     -98.703
  N       -0.547      -1.916     -96.475
  C       -1.205      -2.354     -95.362
  O       -0.787      -2.231     -94.217
  C       -2.445      -3.094     -95.611
  C       -2.707      -3.488     -96.858
  O       -4.018      -6.137     -94.949
  O       -2.654      -8.270     -95.365
  H       -1.480      -3.539    -101.744
  H       -4.479      -6.737     -94.333
  H        0.292      -1.360     -96.345
  H       -3.074      -3.342     -94.767
  H       -3.602      -4.072     -97.061
  H       -2.552      -2.795     -99.856
  H       -0.128      -4.164     -99.959
  H       -0.840      -5.934     -98.519
  H       -3.375      -6.391    -100.113
  H       -4.300      -6.602     -97.759
  H       -3.036      -7.772     -98.133
  P        0.596      -7.273    -100.473
  C        1.937      -9.457    -100.518
  O        0.671      -8.866    -100.302
  O        1.511      -6.490     -99.592
  O        0.910      -7.029    -102.025
  H        1.315      -6.145    -102.147
  H        1.897     -10.500    -100.199
  H        2.707      -8.937     -99.941
  H        2.183      -9.422    -101.582
  H       -0.771      -5.712     -92.639
  H       -1.421      -7.316     -92.884
  H       -2.501      -5.957     -92.683

 3  4  5  6  7  8  9  10  11  12  13  23  28  29  30  31  32 0
 6-311+G(2d,p)
 ****
 33  34 0
 6-311+G(2d,p)
 ****
 1  2  14  15  16  17  18  19  20  21  22  24  25  26  27 0
 3-21G
 ****
 35  36  37  38  39  40  41  42  43  44  45 0
 3-21G
 ****


