%nproc=1
%NoSave
%Mem=1900MB
#P OB98/GEN NMR

erre ene a

0 1
  C      258.048    -791.466     417.504
  O      256.751    -791.506     416.961
  H      258.176    -790.526     418.046
  H      258.791    -791.504     416.697
  H      258.206    -792.297     418.190
  P      256.322    -792.853     416.191
  C      256.320    -791.838     413.803
  O      256.941    -792.739     414.713
  C      256.273    -792.432     412.396
  O      257.640    -792.622     411.917
  C      255.558    -793.803     412.314
  O      254.875    -793.866     411.057
  C      256.723    -794.781     412.274
  O      256.356    -796.045     411.714
  C      257.721    -793.981     411.438
  N      262.154    -794.316     409.068
  C      260.981    -793.664     408.704
  N      261.004    -793.016     407.520
  N      259.907    -793.673     409.431
  C      260.040    -794.347     410.602
  C      261.136    -795.025     411.085
  C      262.325    -795.038     410.251
  O      263.385    -795.604     410.514
  N      260.876    -795.592     412.294
  C      259.615    -795.261     412.556
  N      259.072    -794.502     411.560
  O      254.749    -792.637     415.963
  O      256.613    -794.122     416.912
  H      255.848    -795.880     410.898
  H      254.242    -793.047     416.690
  H      262.955    -794.293     408.468
  H      259.067    -795.548     413.446
  H      257.474    -793.986     410.370
  H      257.102    -794.947     413.290
  H      261.814    -792.933     406.930
  H      254.859    -793.990     413.130
  H      260.169    -792.499     407.260
  H      255.798    -791.700     411.727
  H      256.904    -790.902     413.772
  H      255.302    -791.612     414.144
  P      253.267    -793.805     411.067
  C      252.882    -796.385     411.097
  O      252.727    -795.136     411.775
  O      252.906    -794.042     409.524
  O      252.712    -792.520     411.577
  H      252.052    -793.619     409.320
  H      252.473    -797.170     411.698
  H      253.922    -796.571     410.926
  H      252.367    -796.348     410.160

 6  7  8  9  10  11  12  13  14  15  26  29  33  34 0
 6-311+G(2d,p)
 ****
 36  38  39  40  41 0
 6-311+G(2d,p)
 ****
 1  2  3  4  5  16  17  18  19  20  21  22  23  24  25 0
 3-21G
 ****
 27  28  30  31  32  35  37  42  43  44  45  46  47 0
 3-21G
 ****
 48  49 0
 3-21G
 ****


