%nproc=1
%NoSave
%Mem=1900MB
#P OB98/GEN NMR

erre ene a

0 1
  C      -50.869    -144.272    -475.768
  O      -52.068    -144.386    -476.544
  P      -53.252    -143.351    -476.204
  C      -55.385    -144.774    -475.744
  O      -54.631    -144.024    -476.690
  C      -56.134    -145.911    -476.435
  O      -55.217    -146.844    -477.043
  C      -56.989    -146.757    -475.501
  O      -58.231    -146.131    -475.209
  C      -57.207    -148.007    -476.345
  O      -58.290    -147.791    -477.269
  C      -55.871    -148.134    -477.097
  N      -53.374    -152.472    -477.903
  C      -54.211    -151.758    -478.749
  N      -54.377    -152.262    -479.991
  N      -54.816    -150.659    -478.405
  C      -54.531    -150.256    -477.137
  C      -53.728    -150.878    -476.207
  C      -53.085    -152.118    -476.592
  O      -52.363    -152.807    -475.873
  N      -53.671    -150.169    -475.037
  C      -54.420    -149.107    -475.265
  N      -54.978    -149.123    -476.521
  O      -53.025    -142.178    -477.269
  O      -53.229    -142.850    -474.800
  H      -58.411    -148.624    -477.768
  H      -53.375    -141.336    -476.925
  H      -52.940    -153.320    -478.220
  H      -54.592    -148.301    -474.558
  H      -56.023    -148.381    -478.153
  H      -57.473    -148.883    -475.742
  H      -53.879    -153.068    -480.349
  H      -56.437    -147.017    -474.589
  H      -54.953    -151.733    -480.638
  H      -56.764    -145.476    -477.225
  H      -56.104    -144.118    -475.243
  H      -54.712    -145.155    -474.973
  P      -58.698    -146.110    -473.671
  C      -60.905    -147.451    -473.964
  O      -60.299    -146.197    -473.707
  O      -58.401    -144.603    -473.223
  O      -58.008    -147.108    -472.804
  H      -58.212    -144.569    -472.261
  H      -60.407    -148.254    -473.411
  H      -60.863    -147.666    -475.040
  H      -61.954    -147.406    -473.655
  H      -50.165    -145.011    -476.089
  H      -51.098    -144.423    -474.734
  H      -50.449    -143.297    -475.902

 3  4  5  6  7  8  9  10  11  12  23  26  30  31  33  0
 6-311+G(2d,p)
 ****
 35  36  37  38 0
 6-311+G(2d,p)
 ****
 1  2  13  14  15  16  17  18  19  20  21  22  24  25  27  28  29 0
 3-21G
 ****
 32  34  39  40  41  42  43  44  45  46  47  48  49 0
 3-21G
 ****


