%nproc=1
%NoSave
%Mem=1900MB
#P OB98/GEN NMR

erre ene a

0 1
  C      -27.679     -26.570      -0.430
  O      -27.304     -27.323      -1.571
  P      -28.325     -28.347      -2.251
  C      -27.687     -30.891      -2.142
  O      -28.209     -29.749      -1.499
  C      -26.156     -30.796      -2.160
  O      -25.664     -30.450      -0.849
  C      -25.516     -32.120      -2.571
  O      -25.245     -32.134      -3.963
  C      -24.268     -32.165      -1.711
  O      -23.220     -31.376      -2.303
  C      -24.766     -31.503      -0.404
  N      -25.492     -32.341       0.568
  C      -24.870     -33.462       1.110
  O      -23.718     -33.795       0.851
  N      -25.640     -34.218       1.958
  C      -26.921     -33.936       2.337
  O      -27.671     -34.731       2.891
  C      -27.417     -32.612       1.951
  C      -26.703     -31.898       1.081
  O      -27.655     -28.634      -3.675
  O      -29.731     -27.861      -2.382
  H      -22.411     -31.539      -1.786
  H      -28.075     -28.091      -4.368
  H      -25.243     -35.107       2.244
  H      -28.370     -32.286       2.344
  H      -27.070     -30.929       0.750
  H      -23.938     -31.028       0.134
  H      -23.879     -33.179      -1.634
  H      -26.167     -32.959      -2.290
  H      -25.860     -29.999      -2.853
  H      -28.078     -30.958      -3.163
  H      -28.004     -31.797      -1.615
  P      -24.753     -33.488      -4.659
  C      -22.397     -33.663      -5.652
  O      -23.160     -33.504      -4.473
  O      -25.239     -33.710      -6.053
  O      -25.278     -34.626      -3.659
  H      -26.120     -34.998      -3.992
  H      -21.347     -33.478      -5.418
  H      -22.722     -32.955      -6.419
  H      -22.502     -34.687      -6.023
  H      -26.862     -25.948      -0.129
  H      -27.934     -27.235       0.368
  H      -28.524     -25.958      -0.668

 3  4  5  6  7  8  9  10  11  12  13  23  28  29  30  31  32 0
 6-311+G(2d,p)
 ****
 33  34 0
 6-311+G(2d,p)
 ****
 1  2  14  15  16  17  18  19  20  21  22  24  25  26  27 0
 3-21G
 ****
 35  36  37  38  39  40  41  42  43  44  45 0
 3-21G
 ****


