%nproc=1
%NoSave
%Mem=1900MB
#P OB98/GEN NMR

erre ene a

0 1
  C      -48.580    -494.589    -529.122
  O      -49.207    -493.550    -528.381
  P      -49.589    -492.204    -529.172
  C      -51.423    -491.790    -527.378
  O      -50.346    -491.245    -528.131
  C      -52.128    -490.701    -526.564
  O      -51.261    -490.302    -525.464
  C      -52.476    -489.425    -527.353
  O      -53.703    -488.930    -526.828
  C      -51.316    -488.510    -527.014
  O      -51.551    -487.136    -527.292
  C      -51.130    -488.865    -525.536
  N      -48.703    -485.545    -522.478
  C      -50.015    -485.750    -522.731
  N      -50.588    -486.655    -523.549
  C      -49.640    -487.409    -524.144
  C      -48.277    -487.311    -524.004
  C      -47.798    -486.320    -523.124
  N      -46.454    -486.108    -522.878
  N      -47.630    -488.254    -524.786
  C      -48.601    -488.897    -525.401
  N      -49.827    -488.443    -525.025
  O      -50.767    -492.676    -530.157
  O      -48.458    -491.561    -529.918
  H      -50.703    -486.660    -527.349
  H      -50.697    -492.250    -531.023
  H      -50.710    -485.092    -522.203
  H      -48.458    -489.693    -526.127
  H      -51.895    -488.420    -524.906
  H      -50.439    -488.799    -527.595
  H      -52.597    -489.606    -528.430
  H      -53.036    -491.138    -526.120
  H      -51.041    -492.546    -526.690
  H      -46.216    -485.260    -522.396
  H      -45.799    -486.555    -523.506
  H      -52.130    -492.284    -528.062
  P      -55.028    -489.019    -527.732
  C      -56.420    -490.337    -526.005
  O      -56.232    -489.086    -526.657
  O      -54.968    -490.540    -528.224
  O      -55.154    -488.013    -528.823
  H      -54.822    -491.160    -527.487
  H      -57.190    -490.211    -525.232
  H      -55.493    -490.659    -525.532
  H      -56.763    -491.090    -526.732
  H      -48.383    -495.419    -528.476
  H      -47.659    -494.229    -529.531
  H      -49.226    -494.900    -529.916

 3  4  5  6  7  8  9  10  11  12  22  25  29  30  31  32 0
 6-311+G(2d,p)
 ****
 33  36  37 0
 6-311+G(2d,p)
 ****
 1  2  13  14  15  16  17  18  19  20  21  23  24  26 0
 3-21G
 ****
 27  28  34  35  38  39  40  41  42  43  44  45  46  47  48 0
 3-21G
 ****


