%nproc=1
%NoSave
%Mem=1900MB
#P OB98/GEN NMR

erre ene a

0 1
  C      -87.171    -967.184     502.229
  O      -88.144    -968.102     501.785
  P      -88.896    -969.134     502.734
  C      -88.226    -970.935     504.512
  O      -87.799    -969.947     503.589
  C      -87.111    -971.943     504.793
  O      -86.876    -972.731     503.583
  C      -85.775    -971.249     505.109
  O      -85.033    -971.852     506.168
  C      -85.087    -971.161     503.751
  O      -83.673    -970.975     503.821
  C      -85.553    -972.469     503.086
  N      -82.924    -973.140     498.780
  C      -82.585    -973.507     500.068
  N      -81.316    -973.926     500.264
  N      -83.414    -973.417     501.088
  C      -84.608    -972.852     500.766
  C      -85.051    -972.456     499.529
  C      -84.148    -972.597     498.411
  O      -84.357    -972.184     497.266
  N      -86.300    -971.893     499.602
  C      -86.594    -971.897     500.880
  N      -85.572    -972.445     501.639
  O      -90.021    -969.912     502.133
  O      -89.531    -968.137     503.851
  H      -83.391    -970.558     502.999
  H      -90.386    -968.535     504.133
  H      -82.220    -973.156     498.052
  H      -87.503    -971.502     501.325
  H      -84.912    -973.305     503.370
  H      -85.500    -970.302     503.225
  H      -80.616    -973.861     499.532
  H      -85.951    -970.225     505.471
  H      -80.971    -973.957     501.223
  H      -87.419    -972.641     505.592
  H      -89.084    -971.440     504.056
  H      -88.562    -970.470     505.447
  P      -83.886    -971.209     507.091
  C      -81.346    -971.089     506.779
  O      -82.609    -970.908     506.168
  O      -83.375    -972.408     508.021
  O      -84.331    -970.043     507.931
  H      -83.198    -972.061     508.918
  H      -80.571    -970.591     506.169
  H      -81.110    -972.158     506.841
  H      -81.325    -970.630     507.776
  H      -86.821    -966.606     501.399
  H      -86.351    -967.716     502.665
  H      -87.602    -966.533     502.960

 3  4  5  6  7  8  9  10  11  12  23  26  30  31 0
 6-311+G(2d,p)
 ****
 33  35  36  37  38 0
 6-311+G(2d,p)
 ****
 1  2  13  14  15  16  17  18  19  20  21  22  24  25 0
 3-21G
 ****
 27  28  29  32  34  39  40  41  42  43  44  45  46  47  48  49 0
 3-21G
 ****


