%nproc=1
%NoSave
%Mem=1900MB
#P OB98/GEN NMR

erre ene a

0 1
  C     -342.540      37.236    -889.957
  O     -343.349      37.629    -891.047
  H     -341.763      37.985    -889.807
  H     -342.061      36.280    -890.197
  H     -343.133      37.141    -889.047
  P     -344.765      36.906    -891.217
  C     -344.545      36.247    -893.717
  O     -345.194      37.079    -892.757
  C     -344.578      36.921    -895.087
  O     -345.946      37.286    -895.407
  C     -343.718      38.189    -895.197
  O     -343.131      38.245    -896.497
  C     -344.746      39.298    -895.087
  O     -344.289      40.520    -895.677
  C     -345.924      38.660    -895.827
  N     -348.786      42.520    -897.277
  C     -347.686      41.946    -897.877
  N     -347.231      42.527    -899.007
  N     -347.070      40.897    -897.397
  C     -347.642      40.407    -896.267
  C     -348.730      40.883    -895.577
  C     -349.384      42.058    -896.097
  O     -350.359      42.618    -895.607
  N     -348.947      40.136    -894.447
  C     -347.984      39.228    -894.437
  N     -347.166      39.347    -895.527
  O     -345.760      37.903    -890.447
  O     -344.844      35.516    -890.677
  H     -345.056      41.121    -895.757
  H     -345.881      37.599    -889.527
  H     -349.214      43.351    -897.667
  H     -347.836      38.483    -893.677
  H     -345.796      38.685    -896.917
  H     -344.995      39.480    -894.047
  H     -347.665      43.326    -899.447
  H     -342.937      38.263    -894.417
  H     -346.442      42.094    -899.477
  H     -344.253      36.183    -895.847
  H     -345.065      35.288    -893.777
  H     -343.511      36.067    -893.397
  P     -341.557      38.566    -896.597
  C     -341.949      39.514    -899.007
  O     -341.159      38.694    -898.157
  O     -340.878      37.179    -896.157
  O     -341.104      39.696    -895.737
  H     -340.054      37.365    -895.677
  H     -341.550      39.487    -900.000
  H     -341.936      40.521    -898.645
  H     -342.956      39.152    -899.017

 6  7  8  9  10  11  12  13  14  15  26  29  33  34 0
 6-311+G(2d,p)
 ****
 36  38  39  40  41 0
 6-311+G(2d,p)
 ****
 1  2  3  4  5  16  17  18  19  20  21  22  23  24  25 0
 3-21G
 ****
 27  28  30  31  32  35  37  42  43  44  45  46  47 0
 3-21G
 ****
 48  49 0
 3-21G
 ****


