%nproc=1
%NoSave
%Mem=1900MB
#P OB98/GEN NMR

erre ene a

0 1
  C     1142.589    1459.043    -789.243
  O     1142.393    1457.859    -789.981
  H     1141.747    1459.716    -789.438
  H     1143.511    1459.533    -789.566
  H     1142.640    1458.830    -788.174
  P     1143.515    1456.711    -789.825
  C     1142.777    1456.462    -787.333
  O     1143.853    1456.659    -788.256
  C     1143.312    1456.533    -785.896
  O     1144.073    1455.351    -785.600
  C     1144.212    1457.778    -785.641
  O     1143.863    1458.342    -784.370
  C     1145.608    1457.178    -785.596
  O     1146.500    1457.963    -784.819
  C     1145.339    1455.748    -785.071
  N     1146.394    1454.817    -785.492
  C     1146.806    1453.862    -784.519
  O     1146.304    1453.853    -783.391
  N     1147.817    1452.989    -784.854
  C     1148.387    1453.077    -786.005
  N     1149.394    1452.197    -786.255
  C     1148.007    1454.084    -787.014
  C     1147.020    1454.904    -786.708
  O     1144.808    1457.362    -790.477
  O     1143.146    1455.378    -790.412
  H     1147.366    1457.513    -784.830
  H     1145.516    1456.703    -790.643
  H     1148.543    1454.130    -787.983
  H     1146.679    1455.684    -787.366
  H     1145.290    1455.758    -783.971
  H     1146.009    1457.130    -786.630
  H     1144.128    1458.516    -786.402
  H     1142.443    1456.530    -785.212
  H     1149.620    1451.516    -785.532
  H     1142.344    1455.468    -787.515
  H     1149.941    1452.192    -787.124
  H     1142.020    1457.229    -787.496
  P     1142.563    1459.281    -784.380
  C     1141.045    1457.736    -782.907
  O     1141.276    1458.314    -784.192
  O     1142.460    1459.744    -785.900
  O     1142.634    1460.396    -783.433
  H     1142.823    1460.635    -786.002
  H     1140.165    1457.128    -782.942
  H     1140.912    1458.514    -782.185
  H     1141.885    1457.133    -782.631

 6  7  8  9  10  11  12  13  14  15  16  26  30  31  32  33  35 0
 6-311+G(2d,p)
 ****
 37  38 0
 6-311+G(2d,p)
 ****
 1  2  3  4  5  17  18  19  20  21  22  23  24  25 0
 3-21G
 ****
 27  28  29  34  36  39  40  41  42  43  44  45  46 0
 3-21G
 ****


