%nproc=1
%NoSave
%Mem=1900MB
#P OB98/GEN NMR

erre ene a

0 1
  C      367.827      83.730     312.639
  O      368.085      84.996     313.247
  P      369.232      85.931     312.629
  C      370.726      85.526     314.689
  O      370.124      86.497     313.839
  C      371.517      86.202     315.807
  O      372.691      86.872     315.302
  C      370.730      87.279     316.540
  O      369.768      86.695     317.410
  C      371.844      88.052     317.229
  O      372.245      87.401     318.449
  C      372.983      87.973     316.184
  N      373.176      89.213     315.455
  C      374.132      90.090     315.978
  O      374.727      89.816     317.019
  N      374.376      91.265     315.308
  C      373.720      91.546     314.224
  N      374.010      92.723     313.607
  C      372.694      90.653     313.650
  C      372.471      89.522     314.312
  O      368.769      86.957     311.642
  O      370.218      84.867     311.937
  H      371.536      87.592     319.097
  H      370.648      85.293     311.171
  H      372.181      90.923     312.740
  H      371.732      88.807     313.962
  H      373.934      87.724     316.683
  H      371.532      89.066     317.494
  H      370.226      87.926     315.814
  H      371.839      85.425     316.519
  H      374.705      93.320     314.026
  H      371.387      84.883     314.102
  H      373.588      93.003     312.731
  H      369.939      84.879     315.097
  P      368.269      86.553     316.866
  C      367.557      88.902     317.705
  O      367.334      87.504     317.751
  O      367.853      85.080     317.348
  O      368.120      86.697     315.385
  H      367.253      84.680     316.690
  H      366.674      89.414     318.090
  H      367.743      89.242     316.684
  H      368.415      89.157     318.335
  H      367.039      83.235     313.167
  H      368.712      83.130     312.674
  H      367.536      83.876     311.620

 3  4  5  6  7  8  9  10  11  12  13  23  27  28  29  30  32 0
 6-311+G(2d,p)
 ****
 34  35 0
 6-311+G(2d,p)
 ****
 1  2  14  15  16  17  18  19  20  21  22  24  25  26 0
 3-21G
 ****
 31  33  36  37  38  39  40  41  42  43  44  45  46 0
 3-21G
 ****


