%nproc=1
%NoSave
%Mem=1900MB
#P OB98/GEN NMR

erre ene a

0 1
  C      648.354       4.478     190.870
  O      647.261       4.722     190.005
  P      645.750       4.604     190.512
  C      643.955       2.753     190.601
  O      645.322       3.063     190.317
  C      643.575       1.416     189.941
  O      643.669       1.569     188.493
  C      644.499       0.259     190.360
  O      643.805      -0.895     190.846
  C      645.336       0.031     189.108
  O      645.931      -1.251     189.037
  C      644.348       0.399     187.999
  N      645.004       0.631     186.715
  C      644.499      -0.059     185.612
  O      643.542      -0.817     185.644
  N      645.174       0.117     184.440
  C      646.351       0.799     184.279
  O      646.954       0.832     183.223
  C      646.857       1.469     185.492
  C      646.164       1.372     186.633
  O      644.792       5.582     189.928
  O      645.896       4.700     192.107
  H      646.518      -1.359     189.806
  H      646.453       4.016     192.508
  H      644.825      -0.368     183.624
  H      647.790       2.006     185.399
  H      646.518       1.856     187.538
  H      643.595      -0.380     187.867
  H      646.156       0.759     189.119
  H      645.151       0.551     191.189
  H      642.533       1.210     190.201
  H      643.320       3.544     190.202
  H      643.809       2.717     191.684
  P      644.512      -2.274     191.276
  C      646.174      -3.952     190.183
  O      645.317      -2.838     190.016
  O      643.619      -3.258     191.949
  O      645.683      -1.800     192.265
  H      645.862      -2.501     192.915
  H      646.974      -3.891     189.443
  H      645.606      -4.872     190.016
  H      646.616      -3.967     191.186
  H      649.270       4.611     190.333
  H      648.299       3.475     191.240
  H      648.319       5.163     191.691

 3  4  5  6  7  8  9  10  11  12  13  23  28  29  30  31  32 0
 6-311+G(2d,p)
 ****
 33  34 0
 6-311+G(2d,p)
 ****
 1  2  14  15  16  17  18  19  20  21  22  24  25  26  27 0
 3-21G
 ****
 35  36  37  38  39  40  41  42  43  44  45 0
 3-21G
 ****


