%nproc=1
%NoSave
%Mem=1900MB
#P OB98/GEN NMR

erre ene a

0 1
  C     -739.133     503.597    -181.721
  O     -739.391     502.848    -182.910
  P     -740.297     501.535    -182.802
  C     -741.613     501.409    -185.028
  O     -741.651     501.763    -183.642
  C     -741.619     502.673    -185.900
  O     -740.413     503.431    -185.663
  C     -741.656     502.408    -187.413
  O     -742.908     502.278    -188.050
  C     -741.019     503.686    -187.951
  O     -742.033     504.725    -188.045
  C     -740.010     504.071    -186.885
  N     -736.257     504.435    -190.366
  C     -737.503     504.965    -190.330
  N     -738.437     504.827    -189.348
  C     -737.973     504.058    -188.367
  C     -736.736     503.440    -188.272
  C     -735.852     503.664    -189.345
  N     -734.594     503.122    -189.409
  N     -736.621     502.712    -187.102
  C     -737.794     502.870    -186.504
  N     -738.635     503.680    -187.216
  O     -740.465     500.970    -181.429
  O     -739.489     500.496    -183.728
  H     -741.579     505.508    -188.410
  H     -739.550     499.594    -183.322
  H     -737.789     505.603    -191.162
  H     -738.055     502.412    -185.565
  H     -739.985     505.158    -186.697
  H     -740.618     503.560    -188.955
  H     -741.017     501.548    -187.657
  H     -742.476     503.306    -185.606
  H     -742.481     500.793    -185.262
  H     -734.032     503.297    -190.224
  H     -734.285     502.472    -188.671
  H     -740.708     500.786    -185.182
  P     -743.692     500.867    -188.102
  C     -745.661     502.010    -186.808
  O     -744.754     500.922    -186.911
  O     -742.804     499.663    -188.072
  O     -744.586     501.008    -189.406
  H     -745.310     501.656    -189.337
  H     -746.439     501.751    -186.081
  H     -746.133     502.211    -187.770
  H     -745.128     502.909    -186.480
  H     -738.517     504.440    -181.957
  H     -738.630     502.975    -181.010
  H     -740.059     503.937    -181.306

 3  4  5  6  7  8  9  10  11  12  22  25  29  30  31  32 0
 6-311+G(2d,p)
 ****
 33  36  37 0
 6-311+G(2d,p)
 ****
 1  2  13  14  15  16  17  18  19  20  21  23  24  26 0
 3-21G
 ****
 27  28  34  35  38  39  40  41  42  43  44  45  46  47  48 0
 3-21G
 ****


