%nproc=1
%NoSave
%Mem=1900MB
#P OB98/GEN NMR

erre ene a

0 1
  C      598.340      53.304     181.501
  O      599.581      53.551     180.871
  H      597.573      53.177     180.733
  H      598.067      54.155     182.134
  H      598.395      52.396     182.106
  P      600.875      53.540     181.816
  C      601.541      54.690     184.077
  O      600.533      54.437     183.110
  C      601.019      55.664     185.133
  O      600.826      56.978     184.568
  C      599.653      55.310     185.690
  O      599.691      54.196     186.561
  C      599.287      56.609     186.390
  O      599.843      56.683     187.707
  C      599.923      57.671     185.462
  N      598.922      58.440     184.749
  C      599.393      59.600     184.113
  O      600.587      59.891     184.174
  N      598.496      60.411     183.470
  C      597.230      60.103     183.486
  N      596.389      60.976     182.858
  C      596.696      58.894     184.141
  C      597.589      58.115     184.746
  O      601.902      54.454     181.000
  O      601.395      52.181     182.151
  H      600.766      56.366     187.635
  H      601.527      55.295     180.701
  H      595.638      58.685     184.109
  H      597.279      57.210     185.255
  H      600.539      58.366     186.048
  H      598.205      56.716     186.498
  H      598.942      55.144     184.872
  H      601.773      55.737     185.933
  H      596.793      61.815     182.469
  H      602.438      55.090     183.603
  H      595.386      60.883     182.871
  H      601.808      53.731     184.538
  P      598.726      52.939     186.355
  C      596.183      52.633     186.049
  O      597.290      53.529     185.925
  O      598.674      51.968     187.483
  O      599.243      52.311     184.971
  H      599.202      52.909     184.212
  H      595.287      53.128     185.738
  H      596.085      52.326     187.069
  H      596.348      51.774     185.433

 6  7  8  9  10  11  12  13  14  15  16  26  30  31  32  33  35 0
 6-311+G(2d,p)
 ****
 37  38 0
 6-311+G(2d,p)
 ****
 1  2  3  4  5  17  18  19  20  21  22  23  24  25 0
 3-21G
 ****
 27  28  29  34  36  39  40  41  42  43  44  45  46 0
 3-21G
 ****


