%nproc=1
%NoSave
%Mem=1900MB
#P OB98/GEN NMR

erre ene a

0 1
  C     -603.495     134.111    1128.542
  O     -603.725     133.136    1127.559
  H     -603.032     134.984    1128.068
  H     -602.804     133.720    1129.300
  H     -604.427     134.418    1129.025
  P     -604.649     131.870    1127.913
  C     -606.339     132.199    1125.976
  O     -605.304     131.379    1126.531
  C     -606.447     131.997    1124.461
  O     -605.224     132.466    1123.827
  C     -606.628     130.522    1124.055
  O     -607.417     130.508    1122.845
  C     -605.200     130.094    1123.752
  O     -605.160     128.928    1122.983
  C     -604.665     131.370    1123.084
  N     -603.198     131.419    1123.060
  C     -602.565     130.551    1122.176
  O     -603.185     129.737    1121.461
  N     -601.197     130.584    1122.170
  C     -600.421     131.352    1122.982
  O     -599.195     131.323    1122.962
  C     -601.133     132.219    1123.928
  C     -602.468     132.214    1123.929
  O     -605.620     132.067    1129.030
  O     -603.612     130.689    1128.240
  H     -604.276     128.488    1123.064
  H     -603.989     130.079    1128.890
  H     -600.719     129.963    1121.529
  H     -600.551     132.832    1124.601
  H     -603.031     132.845    1124.619
  H     -605.018     131.449    1122.051
  H     -604.651     129.896    1124.687
  H     -607.112     129.905    1124.821
  H     -607.275     132.626    1124.089
  H     -606.073     133.244    1126.194
  H     -607.285     131.969    1126.463
  P     -608.971     130.114    1122.848
  C     -609.248     131.552    1120.717
  O     -609.549     130.303    1121.343
  O     -609.775     130.775    1123.911
  O     -608.984     128.528    1123.035
  H     -609.819     128.257    1123.485
  H     -609.673     131.571    1119.735
  H     -608.187     131.670    1120.648
  H     -609.658     132.351    1121.299

 6  7  8  9  10  11  12  13  14  15  16  26  31  32  33  34  35 0
 6-311+G(2d,p)
 ****
 36  37 0
 6-311+G(2d,p)
 ****
 1  2  3  4  5  17  18  19  20  21  22  23  24  25 0
 3-21G
 ****
 27  28  29  30  38  39  40  41  42  43  44  45 0
 3-21G
 ****


