%nproc=1
%NoSave
%Mem=1900MB
#P OB98/GEN NMR

erre ene a

0 1
  C      533.993    -899.343      25.001
  O      534.221    -897.983      25.417
  P      535.672    -897.603      25.992
  C      537.356    -895.923      24.971
  O      536.020    -896.113      25.468
  C      537.397    -894.773      23.960
  O      536.882    -895.153      22.671
  C      536.569    -893.563      24.410
  O      537.217    -892.853      25.459
  C      536.422    -892.813      23.081
  O      537.594    -892.013      22.825
  C      536.347    -893.963      22.056
  N      534.996    -894.193      21.558
  C      534.665    -893.563      20.356
  O      535.486    -892.843      19.780
  N      533.407    -893.763      19.812
  C      532.574    -894.523      20.448
  N      531.338    -894.703      19.864
  C      532.853    -895.193      21.738
  C      534.070    -894.983      22.231
  O      536.733    -898.623      25.816
  O      535.367    -897.333      27.550
  H      537.690    -891.413      23.599
  H      536.182    -897.563      28.066
  H      532.121    -895.813      22.213
  H      534.377    -895.423      23.175
  H      536.984    -893.753      21.197
  H      535.567    -892.153      23.088
  H      535.580    -893.923      24.741
  H      538.466    -894.473      23.856
  H      531.153    -894.203      18.986
  H      537.704    -896.853      24.490
  H      530.631    -895.293      20.250
  H      538.036    -895.753      25.822
  P      536.467    -892.783      26.865
  C      536.954    -891.683      29.177
  O      537.359    -891.863      27.833
  O      536.715    -894.273      27.459
  O      535.014    -892.463      26.822
  H      535.943    -894.543      28.009
  H      537.796    -891.313      29.747
  H      536.625    -892.653      29.617
  H      536.128    -890.973      29.237
  H      532.989    -899.443      24.644
  H      534.143    -900.000      25.832
  H      534.677    -899.596      24.218

 3  4  5  6  7  8  9  10  11  12  13  23  27  28  29  30  32 0
 6-311+G(2d,p)
 ****
 34  35 0
 6-311+G(2d,p)
 ****
 1  2  14  15  16  17  18  19  20  21  22  24  25  26 0
 3-21G
 ****
 31  33  36  37  38  39  40  41  42  43  44  45  46 0
 3-21G
 ****


