%nproc=1
%NoSave
%Mem=1900MB
#P OB98/GEN NMR

erre ene a

0 1
  C      -86.226    -186.611     -77.630
  O      -85.291    -187.037     -76.662
  P      -85.290    -186.440     -75.175
  C      -84.892    -184.180     -74.033
  O      -85.037    -184.860     -75.277
  C      -85.556    -182.801     -74.070
  O      -87.005    -182.967     -74.075
  C      -85.190    -181.891     -72.889
  O      -85.075    -180.563     -73.398
  C      -86.402    -182.014     -71.977
  O      -86.514    -180.913     -71.086
  C      -87.525    -182.146     -73.011
  N      -88.737    -182.723     -72.442
  C      -89.346    -182.012     -71.408
  O      -88.796    -181.018     -70.932
  N      -90.563    -182.452     -70.939
  C      -91.023    -183.601     -71.326
  N      -92.258    -183.966     -70.892
  C      -90.274    -184.498     -72.242
  C      -89.172    -183.986     -72.782
  O      -84.405    -187.152     -74.206
  O      -86.830    -186.531     -74.722
  H      -86.879    -187.000     -73.866
  H      -85.734    -180.908     -70.496
  H      -90.633    -185.495     -72.431
  H      -88.569    -184.555     -73.479
  H      -87.773    -181.167     -73.438
  H      -86.318    -182.935     -71.377
  H      -84.250    -182.181     -72.409
  H      -85.286    -182.315     -75.021
  H      -92.758    -183.309     -70.306
  H      -83.826    -184.052     -73.842
  H      -92.816    -184.665     -71.381
  H      -85.311    -184.784     -73.224
  P      -84.171    -179.509     -72.586
  C      -84.430    -178.066     -70.443
  O      -84.981    -179.065     -71.279
  O      -84.287    -178.200     -73.517
  O      -82.727    -179.869     -72.403
  H      -83.503    -177.630     -73.370
  H      -85.078    -177.944     -69.573
  H      -84.374    -177.104     -70.978
  H      -83.432    -178.355     -70.098
  H      -86.052    -187.132     -78.548
  H      -86.118    -185.559     -77.791
  H      -87.217    -186.819     -77.284

 3  4  5  6  7  8  9  10  11  12  13  24  27  28  29  30  32 0
 6-311+G(2d,p)
 ****
 34  35 0
 6-311+G(2d,p)
 ****
 1  2  14  15  16  17  18  19  20  21  22  23  25  26 0
 3-21G
 ****
 31  33  36  37  38  39  40  41  42  43  44  45  46 0
 3-21G
 ****


