%nproc=1
%NoSave
%Mem=1900MB
#P OB98/GEN NMR

erre ene a

0 1
  C        3.764    -121.784      80.619
  O        3.072    -121.187      79.541
  H        3.852    -121.050      81.425
  H        4.768    -122.090      80.313
  H        3.209    -122.648      80.995
  P        2.911    -122.027      78.181
  C        5.370    -121.758      77.407
  O        4.014    -121.393      77.196
  C        6.285    -120.562      77.150
  O        7.665    -120.902      77.398
  C        6.266    -120.036      75.717
  O        5.091    -119.307      75.398
  C        7.508    -119.156      75.743
  O        7.217    -117.934      76.445
  C        8.486    -120.041      76.558
  N        9.368    -120.843      75.711
  C       10.359    -120.151      75.005
  O       10.463    -118.930      75.109
  N       11.190    -120.854      74.166
  C       11.033    -122.137      74.029
  N       11.850    -122.778      73.151
  C       10.013    -122.909      74.767
  C        9.220    -122.207      75.574
  O        1.529    -122.119      77.619
  O        3.560    -123.453      78.514
  H        6.917    -118.181      77.337
  H        3.475    -124.014      77.706
  H        9.917    -123.973      74.609
  H        8.435    -122.703      76.140
  H        9.099    -119.428      77.227
  H        7.864    -118.884      74.748
  H        6.430    -120.848      75.002
  H        6.013    -119.778      77.872
  H       12.509    -122.211      72.632
  H        5.609    -122.587      76.732
  H       11.616    -123.695      72.784
  H        5.516    -122.087      78.441
  P        4.138    -119.890      74.246
  C        4.597    -117.937      72.579
  O        3.650    -118.632      73.373
  O        2.827    -120.322      75.050
  O        4.710    -121.007      73.431
  H        2.863    -121.268      75.299
  H        4.111    -117.133      72.066
  H        5.025    -118.609      71.865
  H        5.369    -117.544      73.207

 6  7  8  9  10  11  12  13  14  15  16  26  30  31  32  33  35 0
 6-311+G(2d,p)
 ****
 37  38 0
 6-311+G(2d,p)
 ****
 1  2  3  4  5  17  18  19  20  21  22  23  24  25 0
 3-21G
 ****
 27  28  29  34  36  39  40  41  42  43  44  45  46 0
 3-21G
 ****


