%nproc=1
%NoSave
%Mem=1900MB
#P OB98/GEN NMR

erre ene a

0 1
  C       45.602      50.241     -20.010
  O       46.943      50.497     -19.639
  P       47.325      50.809     -18.118
  C       46.783      53.267     -18.595
  O       46.588      52.176     -17.705
  C       47.084      54.557     -17.835
  O       45.847      55.078     -17.278
  C       48.078      54.402     -16.675
  O       48.827      55.619     -16.607
  C       47.165      54.297     -15.464
  O       47.825      54.613     -14.245
  C       46.069      55.277     -15.865
  N       43.013      57.046     -12.170
  C       44.213      57.468     -12.622
  N       44.976      56.927     -13.593
  C       44.381      55.842     -14.116
  C       43.176      55.275     -13.737
  C       42.463      55.938     -12.721
  N       41.223      55.542     -12.272
  N       42.931      54.130     -14.471
  C       43.968      54.012     -15.274
  N       44.838      55.058     -15.139
  O       48.784      50.772     -17.807
  O       46.528      49.701     -17.283
  H       48.417      53.872     -14.014
  H       47.150      49.023     -16.955
  H       44.610      58.359     -12.145
  H       44.139      53.198     -15.964
  H       46.371      56.320     -15.713
  H       46.777      53.275     -15.384
  H       48.745      53.541     -16.774
  H       47.450      55.300     -18.555
  H       45.865      53.396     -19.177
  H       40.746      56.163     -11.638
  H       40.680      54.893     -12.838
  H       47.601      53.038     -19.288
  P       50.420      55.588     -16.779
  C       50.852      55.493     -14.259
  O       51.002      54.824     -15.498
  O       51.056      56.902     -17.086
  O       50.646      54.530     -17.964
  H       51.543      54.642     -18.333
  H       51.637      56.247     -14.156
  H       50.950      54.765     -13.449
  H       49.874      55.975     -14.186
  H       45.552      50.056     -21.063
  H       44.997      51.090     -19.768
  H       45.243      49.384     -19.480

 3  4  5  6  7  8  9  10  11  12  22  25  29  30  31  32 0
 6-311+G(2d,p)
 ****
 33  36  37 0
 6-311+G(2d,p)
 ****
 1  2  13  14  15  16  17  18  19  20  21  23  24  26 0
 3-21G
 ****
 27  28  34  35  38  39  40  41  42  43  44  45  46  47  48 0
 3-21G
 ****


