%nproc=1
%NoSave
%Mem=1900MB
#P OB98/GEN NMR

erre ene a

0 1
  C      700.874    -899.050    -645.359
  O      701.608    -899.520    -644.256
  H      701.384    -899.300    -646.294
  H      699.884    -899.530    -645.354
  H      700.724    -897.970    -645.298
  P      703.098    -898.930    -644.091
  C      702.522    -896.570    -643.180
  O      702.992    -897.340    -644.289
  C      702.676    -895.080    -643.467
  O      704.061    -894.840    -643.864
  C      701.778    -894.560    -644.593
  O      701.074    -893.380    -644.153
  C      702.720    -894.160    -645.716
  O      702.290    -893.030    -646.443
  C      704.033    -893.900    -644.955
  N      708.834    -892.370    -645.677
  C      708.052    -892.360    -644.584
  N      706.809    -892.860    -644.432
  C      706.399    -893.470    -645.556
  C      707.088    -893.600    -646.760
  C      708.377    -892.990    -646.794
  N      709.136    -892.950    -647.934
  N      706.356    -894.280    -647.696
  C      705.195    -894.530    -647.087
  N      705.186    -894.060    -645.803
  O      703.831    -899.430    -645.434
  O      703.816    -899.400    -642.872
  H      702.987    -892.810    -647.091
  H      704.584    -900.000    -645.187
  H      708.495    -891.870    -643.704
  H      704.339    -895.010    -647.549
  H      704.060    -892.890    -644.511
  H      702.813    -895.020    -646.387
  H      701.045    -895.310    -644.934
  H      702.516    -894.540    -642.540
  H      703.109    -896.840    -642.282
  H      709.994    -892.400    -647.918
  H      708.755    -893.300    -648.796
  H      701.472    -896.820    -643.004
  P      699.475    -893.480    -644.092
  C      699.115    -894.480    -641.707
  O      699.083    -894.730    -643.121
  O      699.059    -894.020    -645.536
  O      698.792    -892.190    -643.772
  H      698.457    -893.410    -645.976
  H      698.841    -895.370    -641.181
  H      698.426    -893.697    -641.467
  H      700.103    -894.186    -641.419

 6  7  8  9  10  11  12  13  14  15  25  28  32  33  34  35 0
 6-311+G(2d,p)
 ****
 36  39  40 0
 6-311+G(2d,p)
 ****
 1  2  3  4  5  16  17  18  19  20  21  22  23  24 0
 3-21G
 ****
 26  27  29  30  31  37  38  41  42  43  44  45  46  47  48 0
 3-21G
 ****


