%nproc=1
%NoSave
%Mem=1900MB
#P OB98/GEN NMR

erre ene a

0 1
  C     -207.327    -122.023     145.762
  O     -208.190    -123.028     145.260
  P     -209.562    -122.652     144.524
  C     -210.517    -123.680     146.682
  O     -210.675    -122.676     145.685
  C     -210.942    -123.135     148.041
  O     -210.112    -121.991     148.359
  C     -212.382    -122.627     148.140
  O     -213.347    -123.628     148.395
  C     -212.281    -121.707     149.350
  O     -212.298    -122.491     150.557
  C     -210.895    -121.068     149.156
  N     -210.703    -115.992     149.777
  C     -210.563    -117.015     150.647
  N     -210.649    -118.347     150.411
  C     -210.856    -118.572     149.106
  C     -211.022    -117.632     148.096
  C     -210.930    -116.282     148.478
  N     -211.051    -115.241     147.582
  N     -211.242    -118.254     146.877
  C     -211.206    -119.545     147.152
  N     -210.971    -119.785     148.480
  O     -209.866    -123.470     143.317
  O     -209.420    -121.094     144.198
  H     -213.138    -122.989     150.562
  H     -210.082    -120.830     143.523
  H     -210.356    -116.734     151.679
  H     -211.348    -120.320     146.431
  H     -210.364    -120.919     150.107
  H     -213.103    -120.993     149.413
  H     -212.650    -122.027     147.255
  H     -210.752    -123.912     148.803
  H     -209.458    -123.963     146.727
  H     -210.843    -114.311     147.915
  H     -211.056    -115.457     146.595
  H     -211.097    -124.568     146.415
  P     -214.336    -124.025     147.185
  C     -215.957    -122.298     148.293
  O     -215.420    -122.849     147.110
  O     -214.891    -125.411     147.268
  O     -213.428    -123.772     145.882
  H     -213.198    -122.846     145.717
  H     -216.543    -121.407     148.035
  H     -215.163    -121.996     148.980
  H     -216.614    -123.018     148.781
  H     -206.472    -122.480     146.214
  H     -207.847    -121.439     146.492
  H     -207.011    -121.391     144.959

 3  4  5  6  7  8  9  10  11  12  22  25  29  30  31  32 0
 6-311+G(2d,p)
 ****
 33  36  37 0
 6-311+G(2d,p)
 ****
 1  2  13  14  15  16  17  18  19  20  21  23  24  26 0
 3-21G
 ****
 27  28  34  35  38  39  40  41  42  43  44  45  46  47  48 0
 3-21G
 ****


