%nproc=1
%NoSave
%Mem=1900MB
#P OB98/GEN NMR

erre ene a

0 1
  C       19.925     413.400    -304.728
  O       20.652     414.630    -304.695
  P       21.410     415.134    -306.008
  C       20.272     417.410    -306.474
  O       21.439     416.739    -306.022
  C       20.175     418.792    -305.823
  O       19.410     418.752    -304.595
  C       21.533     419.352    -305.414
  O       22.408     419.728    -306.458
  C       21.151     420.422    -304.406
  O       20.786     421.643    -305.047
  C       19.919     419.777    -303.720
  N       20.231     419.241    -302.397
  C       19.932     420.063    -301.315
  O       19.474     421.200    -301.443
  N       20.208     419.551    -300.077
  C       20.770     418.338    -299.824
  O       21.020     417.938    -298.691
  C       21.089     417.519    -301.002
  C       20.806     417.998    -302.216
  O       20.986     414.495    -307.286
  O       22.945     414.767    -305.693
  H       20.639     422.304    -304.345
  H       23.344     414.420    -306.514
  H       19.987     420.133    -299.285
  H       21.542     416.553    -300.841
  H       21.029     417.412    -303.103
  H       19.116     420.516    -303.603
  H       21.981     420.648    -303.729
  H       22.063     418.569    -304.859
  H       19.656     419.466    -306.514
  H       19.383     416.817    -306.238
  H       20.309     417.488    -307.569
  P       23.934     420.165    -306.213
  C       24.999     418.210    -307.543
  O       24.817     419.608    -307.427
  O       24.477     419.996    -304.833
  O       23.867     421.734    -306.551
  H       24.514     422.199    -305.978
  H       25.640     418.014    -308.407
  H       24.041     417.711    -307.698
  H       25.493     417.814    -306.655
  H       19.485     413.220    -303.770
  H       20.591     412.598    -304.971
  H       19.155     413.461    -305.469

 3  4  5  6  7  8  9  10  11  12  13  23  28  29  30  31  32 0
 6-311+G(2d,p)
 ****
 33  34 0
 6-311+G(2d,p)
 ****
 1  2  14  15  16  17  18  19  20  21  22  24  25  26  27 0
 3-21G
 ****
 35  36  37  38  39  40  41  42  43  44  45 0
 3-21G
 ****


