%nproc=1
%NoSave
%Mem=1900MB
#P OB98/GEN NMR

erre ene a

0 1
  C      -71.792      59.379    -103.278
  O      -72.236      60.181    -104.354
  H      -72.188      59.793    -102.347
  H      -70.700      59.390    -103.232
  H      -72.153      58.353    -103.392
  P      -71.918      59.641    -105.834
  C      -74.242      60.475    -106.723
  O      -72.830      60.522    -106.815
  C      -74.874      61.534    -107.626
  O      -74.547      62.846    -107.105
  C      -74.394      61.475    -109.076
  O      -75.493      61.790    -109.933
  C      -73.348      62.574    -109.150
  O      -73.166      63.047    -110.483
  C      -73.908      63.600    -108.155
  N      -72.871      64.481    -107.623
  C      -72.911      65.818    -108.031
  O      -73.778      66.199    -108.818
  N      -71.948      66.680    -107.574
  C      -70.984      66.233    -106.831
  N      -70.047      67.133    -106.429
  C      -70.871      64.820    -106.420
  C      -71.843      64.011    -106.838
  O      -72.641      58.213    -105.820
  O      -70.466      59.598    -106.171
  H      -74.047      63.304    -110.837
  H      -73.508      58.221    -105.382
  H      -70.040      64.492    -105.812
  H      -71.843      62.959    -106.575
  H      -74.676      64.221    -108.634
  H      -72.381      62.193    -108.795
  H      -73.978      60.508    -109.356
  H      -75.964      61.435    -107.566
  H      -70.150      68.088    -106.748
  H      -74.561      60.642    -105.689
  H      -69.228      66.887    -105.893
  H      -74.569      59.475    -107.024
  P      -75.738      60.909    -111.248
  C      -78.316      60.883    -111.266
  O      -77.136      61.338    -111.909
  O      -75.538      59.439    -111.091
  O      -74.671      61.515    -112.286
  H      -74.304      60.774    -112.806
  H      -79.173      61.235    -111.802
  H      -78.343      61.258    -110.264
  H      -78.322      59.813    -111.247

 6  7  8  9  10  11  12  13  14  15  16  26  30  31  32  33  35 0
 6-311+G(2d,p)
 ****
 37  38 0
 6-311+G(2d,p)
 ****
 1  2  3  4  5  17  18  19  20  21  22  23  24  25 0
 3-21G
 ****
 27  28  29  34  36  39  40  41  42  43  44  45  46 0
 3-21G
 ****


