%nproc=1
%NoSave
%Mem=1900MB
#P OB98/GEN NMR

erre ene a

0 1
  C      -38.587      86.816      83.260
  O      -39.551      86.080      82.534
  H      -37.590      86.516      82.926
  H      -38.678      86.611      84.330
  H      -38.715      87.887      83.075
  P      -41.086      86.296      82.959
  C      -42.332      85.813      85.200
  O      -41.180      85.589      84.400
  C      -42.718      84.530      85.928
  O      -43.261      83.563      85.002
  C      -41.556      83.818      86.618
  O      -41.175      84.420      87.842
  C      -42.180      82.449      86.830
  O      -43.126      82.513      87.914
  C      -42.891      82.238      85.477
  N      -42.052      81.554      84.488
  C      -42.058      80.155      84.522
  O      -42.736      79.548      85.348
  N      -41.260      79.470      83.636
  C      -40.537      80.119      82.777
  N      -39.767      79.387      81.929
  C      -40.510      81.592      82.698
  C      -41.283      82.236      83.571
  O      -41.879      85.276      82.015
  O      -41.588      87.699      82.913
  H      -42.605      82.605      88.732
  H      -42.825      85.221      82.298
  H      -39.882      82.090      81.974
  H      -41.314      83.321      83.573
  H      -43.818      81.665      85.605
  H      -41.453      81.679      87.088
  H      -40.694      83.714      85.948
  H      -43.512      84.779      86.645
  H      -39.761      78.382      82.047
  H      -43.148      86.135      84.544
  H      -39.063      79.799      81.331
  H      -42.133      86.600      85.933
  P      -39.609      84.708      88.065
  C      -37.591      83.116      87.640
  O      -38.889      83.283      88.201
  O      -39.555      85.296      89.549
  O      -38.994      85.642      87.067
  H      -38.851      85.969      89.633
  H      -37.253      82.116      87.815
  H      -36.913      83.807      88.097
  H      -37.631      83.300      86.587

 6  7  8  9  10  11  12  13  14  15  16  26  30  31  32  33  35 0
 6-311+G(2d,p)
 ****
 37  38 0
 6-311+G(2d,p)
 ****
 1  2  3  4  5  17  18  19  20  21  22  23  24  25 0
 3-21G
 ****
 27  28  29  34  36  39  40  41  42  43  44  45  46 0
 3-21G
 ****


