%nproc=1
%NoSave
%Mem=1900MB
#P OB98/GEN NMR

erre ene a

0 1
  C      575.194      31.564    -617.782
  O      576.477      32.073    -618.053
  H      575.162      30.511    -618.091
  H      574.443      32.123    -618.349
  H      574.960      31.618    -616.711
  P      576.911      33.466    -617.378
  C      577.701      34.286    -619.701
  O      578.029      34.124    -618.334
  C      578.739      33.618    -620.612
  O      580.064      34.018    -620.193
  C      578.664      32.094    -620.471
  O      579.082      31.423    -621.663
  C      579.676      31.803    -619.368
  O      580.147      30.455    -619.374
  C      580.741      32.855    -619.667
  N      583.997      31.360    -616.043
  C      583.333      30.600    -616.976
  N      583.542      29.267    -616.931
  N      582.526      31.107    -617.874
  C      582.342      32.446    -617.736
  C      582.924      33.298    -616.842
  C      583.848      32.736    -615.882
  O      584.464      33.355    -615.006
  N      582.488      34.593    -617.004
  C      581.639      34.521    -618.007
  N      581.524      33.232    -618.505
  O      577.771      33.009    -616.102
  O      575.794      34.381    -616.994
  H      579.375      29.883    -619.346
  H      577.763      33.715    -615.422
  H      584.631      30.922    -615.383
  H      581.094      35.354    -618.427
  H      581.440      32.484    -620.421
  H      579.172      31.958    -618.404
  H      584.023      28.811    -616.156
  H      577.664      31.757    -620.200
  H      582.862      28.672    -617.412
  H      578.618      33.955    -621.644
  H      577.662      35.370    -619.900
  H      576.701      33.887    -619.895
  P      577.947      31.052    -622.751
  C      578.394      28.498    -622.379
  O      578.256      29.585    -623.283
  O      578.296      32.023    -623.980
  O      576.551      31.276    -622.253
  H      577.650      32.749    -624.022
  H      578.598      27.602    -622.927
  H      577.487      28.378    -621.825
  H      579.201      28.695    -621.704

 6  7  8  9  10  11  12  13  14  15  26  29  33  34 0
 6-311+G(2d,p)
 ****
 36  38  39  40  41 0
 6-311+G(2d,p)
 ****
 1  2  3  4  5  16  17  18  19  20  21  22  23  24  25 0
 3-21G
 ****
 27  28  30  31  32  35  37  42  43  44  45  46  47 0
 3-21G
 ****
 48  49 0
 3-21G
 ****


