%nproc=1
%NoSave
%Mem=1900MB
#P OB98/GEN NMR

erre ene a

0 1
  C      510.535     931.523    -612.465
  O      510.680     930.645    -613.557
  H      509.468     931.705    -612.296
  H      511.020     932.477    -612.685
  H      510.967     931.091    -611.558
  P      512.181     930.221    -613.961
  C      511.701     927.704    -614.429
  O      512.294     928.662    -613.567
  C      512.517     926.410    -614.407
  O      513.674     926.553    -615.245
  C      512.996     926.014    -612.992
  O      512.811     924.602    -612.808
  C      514.466     926.360    -612.999
  O      515.208     925.585    -612.072
  C      514.841     926.176    -614.481
  N      515.992     926.984    -614.862
  C      517.269     926.455    -614.507
  O      517.354     925.375    -613.906
  N      518.387     927.202    -614.794
  C      518.262     928.358    -615.342
  N      519.412     929.048    -615.581
  C      516.962     928.972    -615.682
  C      515.878     928.231    -615.419
  O      513.073     930.960    -612.867
  O      512.568     930.529    -615.372
  H      515.215     924.662    -612.383
  H      514.025     930.962    -613.115
  H      516.904     929.969    -616.115
  H      514.880     928.587    -615.620
  H      515.059     925.123    -614.686
  H      514.582     927.429    -612.722
  H      512.471     926.537    -612.206
  H      511.903     925.595    -614.859
  H      520.290     928.597    -615.333
  H      511.688     928.101    -615.454
  H      519.440     929.990    -615.975
  H      510.669     927.503    -614.109
  P      511.579     924.178    -611.867
  C      510.823     921.878    -612.822
  O      510.577     923.275    -612.761
  O      510.780     925.552    -611.675
  O      511.995     923.567    -610.586
  H      510.995     925.942    -610.814
  H      510.087     921.413    -613.444
  H      510.771     921.463    -611.837
  H      511.797     921.705    -613.231

 6  7  8  9  10  11  12  13  14  15  16  26  30  31  32  33  35 0
 6-311+G(2d,p)
 ****
 37  38 0
 6-311+G(2d,p)
 ****
 1  2  3  4  5  17  18  19  20  21  22  23  24  25 0
 3-21G
 ****
 27  28  29  34  36  39  40  41  42  43  44  45  46 0
 3-21G
 ****


