%nproc=1
%NoSave
%Mem=1900MB
#P OB98/GEN NMR

erre ene a

0 1
  C     -168.224     279.842     151.049
  O     -169.277     279.524     151.929
  P     -169.522     280.262     153.322
  C     -171.135     281.994     152.209
  O     -169.991     281.767     153.025
  C     -172.077     283.019     152.858
  O     -173.117     283.358     151.905
  C     -172.779     282.435     154.098
  O     -172.872     283.338     155.192
  C     -174.085     281.899     153.525
  O     -175.098     281.713     154.499
  C     -174.386     282.913     152.431
  N     -178.888     281.028     151.013
  C     -178.537     281.640     152.201
  N     -179.449     281.575     153.193
  N     -177.384     282.224     152.399
  C     -176.531     282.110     151.353
  C     -176.769     281.528     150.127
  C     -178.055     280.913     149.910
  O     -178.368     280.261     148.914
  N     -175.647     281.535     149.337
  C     -174.723     282.092     150.092
  N     -175.204     282.425     151.339
  O     -168.500     280.044     154.385
  O     -170.900     279.575     153.814
  H     -175.348     282.593     154.840
  H     -170.858     279.518     154.793
  H     -179.763     280.521     150.950
  H     -173.690     282.249     149.806
  H     -174.909     283.788     152.828
  H     -173.871     280.911     153.097
  H     -180.284     281.005     153.118
  H     -172.202     281.602     154.507
  H     -179.125     281.789     154.131
  H     -171.520     283.932     153.084
  H     -171.640     281.030     152.107
  H     -170.835     282.323     151.212
  P     -172.931     283.015     156.754
  C     -170.550     282.061     156.808
  O     -171.917     281.811     157.065
  O     -174.362     282.340     156.984
  O     -172.767     284.202     157.642
  H     -174.738     282.659     157.829
  H     -170.016     281.104     156.792
  H     -170.135     282.685     157.603
  H     -170.417     282.557     155.843
  H     -168.275     279.209     150.188
  H     -167.288     279.694     151.545
  H     -168.309     280.864     150.745

 3  4  5  6  7  8  9  10  11  12  23  26  30  31 0
 6-311+G(2d,p)
 ****
 33  35  36  37  38 0
 6-311+G(2d,p)
 ****
 1  2  13  14  15  16  17  18  19  20  21  22  24  25 0
 3-21G
 ****
 27  28  29  32  34  39  40  41  42  43  44  45  46  47  48  49 0
 3-21G
 ****


