%nproc=1
%NoSave
%Mem=1900MB
#P OB98/GEN NMR

erre ene a

0 1
  C     -162.872     224.037     847.703
  O     -163.331     224.645     848.893
  H     -161.937     224.529     847.391
  H     -163.603     224.152     846.894
  H     -162.665     222.976     847.867
  P     -164.807     224.276     849.402
  C     -163.583     222.708     851.054
  O     -164.618     223.686     850.885
  C     -163.094     222.665     852.509
  O     -162.290     223.838     852.797
  C     -164.236     222.705     853.539
  O     -164.999     221.514     853.568
  C     -163.508     223.167     854.794
  O     -162.898     222.107     855.536
  C     -162.414     224.089     854.211
  N     -162.676     225.508     854.494
  C     -161.709     226.405     854.078
  O     -160.675     226.071     853.504
  N     -161.955     227.723     854.362
  C     -163.016     228.207     855.068
  O     -163.160     229.390     855.326
  C     -164.003     227.187     855.511
  C     -163.790     225.913     855.220
  O     -165.610     223.392     848.495
  O     -165.477     225.702     849.667
  H     -163.592     221.437     855.695
  H     -166.458     225.628     849.728
  H     -161.265     228.396     854.050
  H     -164.862     227.544     856.073
  H     -164.494     225.154     855.537
  H     -161.429     223.841     854.649
  H     -164.190     223.677     855.482
  H     -164.919     223.506     853.255
  H     -162.464     221.779     852.641
  H     -162.748     222.986     850.399
  H     -163.954     221.725     850.753
  P     -166.547     221.506     853.980
  C     -167.574     222.973     852.076
  O     -167.419     221.658     852.630
  O     -166.938     222.307     855.175
  O     -166.768     219.951     854.349
  H     -167.421     219.901     855.073
  H     -168.171     222.919     851.190
  H     -166.612     223.374     851.834
  H     -168.054     223.607     852.792

 6  7  8  9  10  11  12  13  14  15  16  26  31  32  33  34  35 0
 6-311+G(2d,p)
 ****
 36  37 0
 6-311+G(2d,p)
 ****
 1  2  3  4  5  17  18  19  20  21  22  23  24  25 0
 3-21G
 ****
 27  28  29  30  38  39  40  41  42  43  44  45 0
 3-21G
 ****


