%nproc=1
%NoSave
%Mem=1900MB
#P OB98/GEN NMR

erre ene a

0 1
  C      120.609     -37.690    -146.761
  O      121.653     -37.588    -145.812
  H      119.771     -37.069    -146.429
  H      120.270     -38.726    -146.839
  H      120.948     -37.332    -147.738
  P      122.973     -38.452    -146.109
  C      122.439     -40.115    -144.189
  O      122.662     -39.937    -145.580
  C      121.290     -41.090    -143.952
  O      120.031     -40.505    -144.356
  C      121.419     -42.409    -144.707
  O      122.259     -43.318    -144.014
  C      119.968     -42.868    -144.751
  O      119.573     -43.492    -143.511
  C      119.217     -41.544    -144.960
  N      115.768     -39.787    -148.203
  C      115.713     -39.925    -146.832
  N      114.543     -39.593    -146.242
  N      116.707     -40.356    -146.103
  C      117.801     -40.682    -146.833
  C      117.985     -40.576    -148.194
  C      116.884     -40.066    -148.984
  O      116.894     -39.859    -150.193
  N      119.241     -40.987    -148.558
  C      119.802     -41.377    -147.429
  N      118.961     -41.226    -146.356
  O      124.029     -37.899    -145.039
  O      123.500     -38.359    -147.501
  H      119.673     -42.852    -142.785
  H      124.929     -37.969    -145.413
  H      114.975     -39.433    -148.706
  H      120.804     -41.772    -147.337
  H      118.246     -41.535    -144.451
  H      119.800     -43.606    -145.536
  H      113.673     -39.580    -146.758
  H      121.776     -42.238    -145.730
  H      114.486     -39.713    -145.238
  H      121.230     -41.272    -142.870
  H      122.186     -39.147    -143.742
  H      123.355     -40.493    -143.723
  P      123.584     -43.825    -144.764
  C      122.666     -46.231    -144.388
  O      123.268     -45.308    -145.287
  O      124.616     -44.073    -143.564
  O      124.124     -42.880    -145.785
  H      125.528     -44.119    -143.912
  H      122.521     -47.168    -144.883
  H      121.721     -45.849    -144.064
  H      123.304     -46.371    -143.540

 6  7  8  9  10  11  12  13  14  15  26  29  33  34 0
 6-311+G(2d,p)
 ****
 36  38  39  40  41 0
 6-311+G(2d,p)
 ****
 1  2  3  4  5  16  17  18  19  20  21  22  23  24  25 0
 3-21G
 ****
 27  28  30  31  32  35  37  42  43  44  45  46  47 0
 3-21G
 ****
 48  49 0
 3-21G
 ****


