%nproc=1
%NoSave
%Mem=1900MB
#P OB98/GEN NMR

erre ene a

0 1
  C     -440.044      39.028     654.173
  O     -439.591      37.826     653.550
  P     -438.318      37.719     652.586
  C     -436.601      37.258     654.519
  O     -437.015      38.085     653.447
  C     -435.119      36.806     654.399
  O     -434.258      37.954     654.630
  C     -434.791      35.786     655.488
  O     -435.094      34.420     655.285
  C     -433.334      36.053     655.818
  O     -432.438      35.219     655.082
  C     -433.142      37.521     655.426
  N     -430.362      38.755     659.548
  C     -430.202      37.705     658.671
  N     -429.213      36.829     658.951
  N     -430.965      37.504     657.624
  C     -431.972      38.395     657.513
  C     -432.251      39.473     658.318
  C     -431.366      39.711     659.442
  O     -431.448      40.641     660.239
  N     -433.365      40.150     657.904
  C     -433.785      39.468     656.861
  N     -432.962      38.398     656.576
  O     -438.461      38.372     651.254
  O     -438.166      36.136     652.341
  H     -432.645      35.306     654.136
  H     -437.813      36.027     651.429
  H     -429.739      38.875     660.318
  H     -434.666      39.701     656.275
  H     -432.247      37.652     654.803
  H     -433.134      35.853     656.880
  H     -428.672      36.857     659.795
  H     -435.354      36.071     656.384
  H     -429.223      35.947     658.434
  H     -434.908      36.457     653.383
  H     -437.265      36.388     654.519
  H     -436.755      37.774     655.472
  P     -435.217      33.297     656.434
  C     -437.780      33.295     656.337
  O     -436.632      33.492     657.150
  O     -434.185      33.775     657.552
  O     -434.914      31.904     655.982
  H     -433.984      33.033     658.163
  H     -438.645      33.744     656.834
  H     -437.964      32.223     656.208
  H     -437.648      33.771     655.364
  H     -440.912      38.819     654.763
  H     -440.289      39.749     653.421
  H     -439.271      39.417     654.802

 3  4  5  6  7  8  9  10  11  12  23  26  30  31 0
 6-311+G(2d,p)
 ****
 33  35  36  37  38 0
 6-311+G(2d,p)
 ****
 1  2  13  14  15  16  17  18  19  20  21  22  24  25 0
 3-21G
 ****
 27  28  29  32  34  39  40  41  42  43  44  45  46  47  48  49 0
 3-21G
 ****


