%nproc=1
%NoSave
%Mem=1900MB
#P OB98/GEN NMR

erre ene a

0 1
  C      -69.775     325.506       7.098
  O      -70.288     325.179       5.824
  H      -69.816     326.591       7.225
  H      -68.734     325.184       7.175
  H      -70.370     325.034       7.885
  P      -70.471     323.623       5.478
  C      -71.596     321.694       6.802
  O      -71.624     323.069       6.451
  C      -72.991     321.222       7.213
  O      -73.484     322.085       8.271
  C      -74.011     321.248       6.073
  O      -74.867     320.109       6.196
  C      -74.811     322.512       6.333
  O      -76.122     322.458       5.773
  C      -74.770     322.594       7.864
  N      -74.986     323.961       8.332
  C      -76.234     324.531       8.056
  O      -77.083     323.887       7.437
  N      -76.471     325.826       8.434
  C      -75.513     326.526       8.963
  N      -75.800     327.816       9.288
  C      -74.160     325.987       9.210
  C      -73.971     324.709       8.884
  O      -69.143     322.952       6.065
  O      -70.676     323.310       4.034
  H      -76.620     323.251       6.071
  H      -68.875     322.177       5.538
  H      -73.390     326.617       9.632
  H      -73.011     324.231       9.022
  H      -75.538     321.945       8.307
  H      -74.293     323.372       5.893
  H      -73.548     321.250       5.080
  H      -72.906     320.215       7.637
  H      -76.734     328.152       9.085
  H      -70.912     321.556       7.646
  H      -75.122     328.463       9.660
  H      -71.230     321.108       5.952
  P      -74.214     318.680       5.872
  C      -72.036     317.749       6.939
  O      -73.363     318.216       7.148
  O      -73.104     319.022       4.772
  O      -75.199     317.673       5.370
  H      -73.386     318.689       3.899
  H      -71.601     317.478       7.878
  H      -71.453     318.523       6.486
  H      -72.056     316.894       6.296

 6  7  8  9  10  11  12  13  14  15  16  26  30  31  32  33  35 0
 6-311+G(2d,p)
 ****
 37  38 0
 6-311+G(2d,p)
 ****
 1  2  3  4  5  17  18  19  20  21  22  23  24  25 0
 3-21G
 ****
 27  28  29  34  36  39  40  41  42  43  44  45  46 0
 3-21G
 ****


