%nproc=1
%NoSave
%Mem=1900MB
#P OB98/GEN NMR

erre ene a

0 1
  C        9.211     -26.803    -268.342
  O        8.206     -26.911    -269.336
  H        9.658     -27.789    -268.184
  H        8.772     -26.459    -267.402
  H        9.993     -26.105    -268.665
  P        7.547     -25.542    -269.847
  C        5.316     -26.911    -269.556
  O        6.016     -25.877    -270.238
  C        3.969     -27.162    -270.240
  O        3.159     -25.985    -270.275
  C        4.082     -27.568    -271.706
  O        4.589     -28.878    -271.871
  C        2.642     -27.407    -272.147
  O        1.841     -28.522    -271.748
  C        2.220     -26.118    -271.374
  N        2.188     -24.939    -272.228
  C        1.087     -24.857    -273.088
  O        0.227     -25.726    -273.096
  N        1.025     -23.775    -273.954
  C        1.944     -22.867    -273.926
  N        1.817     -21.834    -274.807
  C        3.107     -22.904    -273.011
  C        3.163     -23.977    -272.212
  O        8.230     -25.334    -271.267
  O        7.675     -24.389    -268.914
  H        0.914     -28.296    -271.988
  H        8.162     -26.097    -271.864
  H        3.851     -22.120    -273.014
  H        3.984     -24.075    -271.514
  H        1.221     -26.258    -270.930
  H        2.558     -27.324    -273.237
  H        4.693     -26.835    -272.245
  H        3.433     -27.925    -269.656
  H        1.016     -21.847    -275.431
  H        5.166     -26.655    -268.498
  H        2.495     -21.088    -274.915
  H        5.933     -27.813    -269.597
  P        5.633     -29.203    -273.054
  C        5.435     -31.774    -272.886
  O        6.281     -30.632    -272.700
  O        6.626     -28.116    -273.345
  O        4.691     -29.553    -274.300
  H        4.080     -30.312    -274.160
  H        5.970     -32.662    -272.620
  H        5.135     -31.832    -273.911
  H        4.569     -31.681    -272.265

 6  7  8  9  10  11  12  13  14  15  16  26  30  31  32  33  35 0
 6-311+G(2d,p)
 ****
 37  38 0
 6-311+G(2d,p)
 ****
 1  2  3  4  5  17  18  19  20  21  22  23  24  25 0
 3-21G
 ****
 27  28  29  34  36  39  40  41  42  43  44  45  46 0
 3-21G
 ****


