%nproc=1
%NoSave
%Mem=1900MB
#P OB98/GEN NMR

erre ene a

0 1
  C     -535.395     706.104    -737.446
  O     -534.542     705.534    -736.473
  H     -535.358     707.187    -737.344
  H     -536.424     705.764    -737.301
  H     -535.048     705.829    -738.444
  P     -534.476     703.927    -736.429
  C     -532.334     704.259    -737.844
  O     -533.546     703.526    -737.677
  C     -531.127     703.314    -737.829
  O     -531.388     702.158    -738.620
  C     -529.842     703.931    -738.359
  O     -529.197     704.692    -737.359
  C     -529.057     702.683    -738.712
  O     -528.442     702.149    -737.518
  C     -530.139     701.720    -739.224
  N     -529.820     698.747    -743.389
  C     -529.424     698.541    -742.113
  N     -529.483     699.405    -741.068
  C     -530.043     700.568    -741.438
  C     -530.488     700.916    -742.704
  C     -530.365     699.950    -743.716
  N     -530.771     700.148    -745.028
  N     -530.997     702.201    -742.717
  C     -530.914     702.597    -741.463
  N     -530.305     701.658    -740.661
  O     -535.788     703.229    -736.336
  O     -533.501     703.696    -735.169
  H     -529.171     701.924    -736.901
  H     -532.770     704.349    -735.189
  H     -528.991     697.577    -741.896
  H     -531.279     703.547    -741.080
  H     -529.968     700.691    -738.878
  H     -528.246     702.868    -739.421
  H     -530.023     704.517    -739.269
  H     -531.002     702.973    -736.786
  H     -532.231     705.016    -737.060
  H     -530.473     699.481    -745.715
  H     -531.057     701.078    -745.285
  H     -532.399     704.779    -738.810
  P     -528.597     706.145    -737.659
  C     -530.385     707.233    -736.152
  O     -529.842     707.145    -737.478
  O     -527.875     706.256    -738.951
  O     -527.676     706.475    -736.396
  H     -527.066     707.208    -736.604
  H     -531.203     707.922    -736.147
  H     -529.627     707.574    -735.478
  H     -530.729     706.268    -735.843

 6  7  8  9  10  11  12  13  14  15  25  28  32  33  34  35 0
 6-311+G(2d,p)
 ****
 36  39  40 0
 6-311+G(2d,p)
 ****
 1  2  3  4  5  16  17  18  19  20  21  22  23  24 0
 3-21G
 ****
 26  27  29  30  31  37  38  41  42  43  44  45  46  47 0
 3-21G
 ****
 48 0
 3-21G
 ****


