%nproc=1
%NoSave
%Mem=1900MB
#P OB98/GEN NMR

erre ene a

0 1
  C       39.363    -192.786     -13.339
  O       39.738    -194.128     -13.104
  H       39.308    -192.591     -14.413
  H       38.377    -192.612     -12.900
  H       40.082    -192.105     -12.874
  P       41.150    -194.600     -13.704
  C       40.135    -194.283     -16.079
  O       40.819    -195.143     -15.178
  C       40.017    -194.965     -17.436
  O       39.179    -194.182     -18.316
  C       41.349    -195.122     -18.164
  O       42.082    -196.252     -17.722
  C       40.870    -195.300     -19.594
  O       40.373    -196.639     -19.778
  C       39.716    -194.288     -19.664
  N       38.523    -190.339     -22.694
  C       37.875    -191.492     -22.418
  N       38.250    -192.482     -21.583
  C       39.420    -192.191     -20.994
  C       40.192    -191.054     -21.172
  C       39.702    -190.097     -22.076
  N       40.374    -188.935     -22.386
  N       41.342    -191.125     -20.409
  C       41.253    -192.274     -19.771
  N       40.125    -192.969     -20.116
  O       41.481    -195.940     -12.893
  O       42.252    -193.595     -13.648
  H       40.076    -196.708     -20.705
  H       42.416    -196.190     -13.016
  H       36.933    -191.638     -22.939
  H       41.979    -192.651     -19.063
  H       38.903    -194.620     -20.320
  H       41.666    -195.150     -20.328
  H       41.951    -194.209     -18.101
  H       39.531    -195.939     -17.293
  H       40.701    -193.351     -16.183
  H       40.018    -188.387     -23.152
  H       41.318    -188.815     -22.045
  H       39.140    -194.058     -15.683
  P       43.683    -196.125     -17.676
  C       43.754    -197.818     -19.646
  O       44.263    -197.453     -18.368
  O       44.015    -196.340     -16.127
  O       44.219    -194.830     -18.196
  H       44.802    -195.826     -15.864
  H       44.231    -198.717     -19.977
  H       43.950    -197.032     -20.346
  H       42.698    -197.979     -19.577

 6  7  8  9  10  11  12  13  14  15  25  28  32  33  34  35 0
 6-311+G(2d,p)
 ****
 36  39  40 0
 6-311+G(2d,p)
 ****
 1  2  3  4  5  16  17  18  19  20  21  22  23  24 0
 3-21G
 ****
 26  27  29  30  31  37  38  41  42  43  44  45  46  47 0
 3-21G
 ****
 48 0
 3-21G
 ****


