%nproc=1
%NoSave
%Mem=1900MB
#P OB98/GEN NMR

erre ene a

0 1
  C      -61.086      -4.030      19.873
  O      -61.270      -3.042      20.860
  H      -61.677      -3.757      18.994
  H      -61.438      -5.000      20.232
  H      -60.035      -4.096      19.581
  P      -60.548      -3.210      22.285
  C      -60.256      -5.168      23.919
  O      -61.002      -4.660      22.820
  C      -61.132      -5.295      25.166
  O      -61.352      -3.978      25.742
  C      -62.510      -5.915      24.892
  O      -62.789      -6.922      25.867
  C      -63.469      -4.749      25.075
  O      -64.791      -5.161      25.411
  C      -62.733      -3.935      26.143
  N      -63.241      -2.573      26.242
  C      -63.859      -2.232      27.449
  O      -63.945      -3.060      28.357
  N      -64.412      -0.985      27.580
  C      -64.393      -0.166      26.576
  N      -64.984       1.044      26.761
  C      -63.776      -0.495      25.274
  C      -63.220      -1.702      25.179
  O      -60.777      -2.085      23.236
  O      -59.002      -3.433      21.937
  H      -65.163      -5.661      24.652
  H      -58.460      -3.193      22.725
  H      -63.791       0.222      24.466
  H      -62.744      -2.034      24.262
  H      -62.816      -4.412      27.128
  H      -63.523      -4.175      24.140
  H      -62.596      -6.350      23.897
  H      -60.581      -5.871      25.920
  H      -65.401       1.226      27.667
  H      -59.412      -4.494      24.111
  H      -65.053       1.753      26.047
  H      -59.873      -6.157      23.649
  P      -62.886      -8.429      25.321
  C      -64.596      -9.851      23.986
  O      -64.312      -8.607      24.608
  O      -63.009      -9.298      26.660
  O      -61.706      -8.842      24.505
  H      -62.188      -9.807      26.800
  H      -65.576      -9.820      23.557
  H      -64.551     -10.633      24.715
  H      -63.876     -10.038      23.217

 6  7  8  9  10  11  12  13  14  15  16  26  30  31  32  33  35 0
 6-311+G(2d,p)
 ****
 37  38 0
 6-311+G(2d,p)
 ****
 1  2  3  4  5  17  18  19  20  21  22  23  24  25 0
 3-21G
 ****
 27  28  29  34  36  39  40  41  42  43  44  45  46 0
 3-21G
 ****


