%nproc=1
%NoSave
%Mem=1900MB
#P OB98/GEN NMR

erre ene a

0 1
  C       -5.191     437.554    -189.298
  O       -4.374     436.585    -189.922
  P       -4.062     435.178    -189.219
  C       -5.782     433.779    -190.521
  O       -5.439     434.350    -189.268
  C       -6.692     432.566    -190.352
  O       -5.997     431.537    -189.590
  C       -8.017     432.850    -189.634
  O       -8.989     431.977    -190.214
  C       -7.710     432.434    -188.204
  O       -8.888     432.193    -187.442
  C       -6.820     431.210    -188.450
  N       -6.024     430.872    -187.274
  C       -6.699     430.261    -186.216
  O       -7.921     430.107    -186.267
  N       -5.989     429.899    -185.097
  C       -4.731     430.208    -185.007
  N       -4.077     429.817    -183.882
  C       -4.012     430.965    -186.051
  C       -4.707     431.251    -187.153
  O       -3.431     435.267    -187.872
  O       -3.162     434.411    -190.298
  H       -9.571     432.839    -187.714
  H       -2.233     434.759    -190.281
  H       -2.981     431.252    -185.910
  H       -4.266     431.797    -187.971
  H       -7.424     430.339    -188.725
  H       -7.148     433.226    -187.702
  H       -8.342     433.893    -189.703
  H       -6.898     432.148    -191.346
  H       -4.605     429.289    -183.203
  H       -4.863     433.462    -191.018
  H       -3.085     429.938    -183.750
  H       -6.264     434.539    -191.159
  P      -10.548     432.371    -190.251
  C      -10.373     433.077    -192.698
  O      -10.724     433.475    -191.386
  O      -11.137     432.729    -188.922
  O      -11.265     431.079    -190.880
  H      -12.224     431.125    -190.704
  H      -10.793     433.795    -193.412
  H      -10.763     432.084    -192.926
  H       -9.283     433.074    -192.803
  H       -5.271     438.413    -189.930
  H       -4.756     437.839    -188.363
  H       -6.165     437.144    -189.128

 3  4  5  6  7  8  9  10  11  12  13  23  27  28  29  30  32 0
 6-311+G(2d,p)
 ****
 34  35 0
 6-311+G(2d,p)
 ****
 1  2  14  15  16  17  18  19  20  21  22  24  25  26 0
 3-21G
 ****
 31  33  36  37  38  39  40  41  42  43  44  45  46 0
 3-21G
 ****


