%nproc=1
%NoSave
%Mem=1900MB
#P OB98/GEN NMR

erre ene a

0 1
  C     -608.703      33.395     358.055
  O     -608.805      33.498     356.650
  H     -609.397      32.623     358.401
  H     -608.976      34.343     358.523
  H     -607.690      33.110     358.354
  P     -607.763      34.428     355.867
  C     -607.121      33.496     353.547
  O     -606.879      33.459     354.946
  C     -607.900      32.255     353.095
  O     -609.185      32.236     353.789
  C     -608.202      32.214     351.584
  O     -608.255      30.831     351.205
  C     -609.581      32.851     351.551
  O     -610.220      32.697     350.308
  C     -610.204      32.157     352.769
  N     -611.456      32.737     353.246
  C     -612.633      32.342     352.617
  O     -612.693      31.536     351.690
  N     -613.780      32.918     353.090
  C     -613.867      33.815     354.115
  O     -614.930      34.274     354.516
  C     -612.590      34.200     354.734
  C     -611.462      33.648     354.283
  O     -606.983      35.381     356.709
  O     -608.676      35.198     354.798
  H     -608.850      36.105     355.110
  H     -610.409      31.746     350.163
  H     -614.643      32.640     352.651
  H     -612.621      34.919     355.542
  H     -610.506      33.903     354.728
  H     -610.360      31.095     352.556
  H     -609.497      33.929     351.712
  H     -607.449      32.729     350.982
  H     -607.354      31.359     353.414
  H     -606.154      33.531     353.034
  H     -607.683      34.404     353.301
  P     -606.999      30.028     350.614
  C     -606.889      28.113     352.355
  O     -606.266      29.281     351.836
  O     -606.081      30.864     349.786
  O     -607.625      28.834     349.753
  H     -606.999      28.567     349.057
  H     -606.300      27.721     353.157
  H     -606.971      27.379     351.581
  H     -607.865      28.360     352.717

 6  7  8  9  10  11  12  13  14  15  16  27  31  32  33  34  35 0
 6-311+G(2d,p)
 ****
 36  37 0
 6-311+G(2d,p)
 ****
 1  2  3  4  5  17  18  19  20  21  22  23  24  25 0
 3-21G
 ****
 26  28  29  30  38  39  40  41  42  43  44  45 0
 3-21G
 ****


