%nproc=1
%NoSave
%Mem=1900MB
#P OB98/GEN NMR

erre ene a

0 1
  C     -287.776     252.317     325.526
  O     -288.695     252.058     324.484
  H     -288.330     252.637     326.412
  H     -287.086     253.115     325.236
  H     -287.217     251.410     325.766
  P     -288.081     251.672     323.054
  C     -288.908     249.209     323.093
  O     -288.979     250.484     322.466
  C     -290.314     248.636     323.242
  O     -291.093     249.471     324.134
  C     -291.106     248.584     321.944
  O     -290.744     247.485     321.124
  C     -292.524     248.469     322.474
  O     -292.868     247.107     322.775
  C     -292.475     249.326     323.752
  N     -293.132     250.617     323.562
  C     -294.512     250.571     323.389
  O     -295.159     249.527     323.394
  N     -295.124     251.776     323.169
  C     -294.500     252.982     323.058
  O     -295.106     254.018     322.803
  C     -293.039     252.966     323.231
  C     -292.429     251.803     323.469
  O     -286.701     250.957     323.431
  O     -287.878     252.824     322.125
  H     -285.955     251.550     323.226
  H     -292.372     246.878     323.586
  H     -296.125     251.764     323.045
  H     -292.510     253.907     323.147
  H     -291.351     251.762     323.590
  H     -292.975     248.809     324.580
  H     -293.244     248.829     321.744
  H     -291.004     249.532     321.399
  H     -290.237     247.636     323.688
  H     -288.460     249.313     324.086
  H     -288.277     248.550     322.489
  P     -290.872     247.662     319.535
  C     -288.610     248.896     318.998
  O     -289.370     247.698     318.976
  O     -291.375     249.180     319.450
  O     -291.774     246.658     318.904
  H     -291.079     249.701     320.215
  H     -287.641     248.711     318.584
  H     -288.507     249.235     320.008
  H     -289.108     249.645     318.419

 6  7  8  9  10  11  12  13  14  15  16  27  31  32  33  34  35 0
 6-311+G(2d,p)
 ****
 36  37 0
 6-311+G(2d,p)
 ****
 1  2  3  4  5  17  18  19  20  21  22  23  24  25 0
 3-21G
 ****
 26  28  29  30  38  39  40  41  42  43  44  45 0
 3-21G
 ****


