%nproc=1
%NoSave
%Mem=1900MB
#P OB98/GEN NMR

erre ene a

0 1
  C       94.905    -230.505     -29.385
  O       93.849    -229.648     -29.765
  P       92.663    -230.095     -30.737
  C       92.517    -231.270     -33.051
  O       93.277    -231.062     -31.866
  C       93.387    -231.623     -34.268
  O       93.934    -232.947     -34.095
  C       92.526    -231.673     -35.535
  O       92.225    -230.483     -36.236
  C       93.132    -232.785     -36.382
  O       94.011    -232.287     -37.394
  C       93.910    -233.622     -35.363
  N       93.756    -238.389     -37.087
  C       94.650    -237.382     -37.391
  N       95.489    -237.629     -38.422
  N       94.699    -236.239     -36.755
  C       93.735    -236.106     -35.816
  C       92.804    -237.034     -35.415
  C       92.790    -238.309     -36.096
  O       91.956    -239.193     -35.913
  N       91.941    -236.521     -34.482
  C       92.321    -235.269     -34.343
  N       93.381    -234.958     -35.161
  O       91.695    -229.036     -31.151
  O       91.864    -231.139     -29.800
  H       94.616    -231.648     -36.977
  H       90.913    -231.063     -30.017
  H       93.713    -239.216     -37.664
  H       91.848    -234.543     -33.696
  H       94.956    -233.738     -35.675
  H       92.347    -233.347     -36.900
  H       95.383    -238.434     -39.023
  H       91.544    -232.056     -35.232
  H       96.036    -236.858     -38.782
  H       94.247    -230.953     -34.346
  H       91.946    -230.353     -33.239
  H       91.792    -232.070     -32.884
  P       91.196    -230.331     -37.448
  C       90.931    -231.175     -39.851
  O       91.761    -231.153     -38.700
  O       91.362    -228.807     -37.919
  O       89.770    -230.616     -37.102
  H       90.559    -228.520     -38.394
  H       91.251    -231.987     -40.504
  H       91.025    -230.228     -40.387
  H       89.880    -231.335     -39.575
  H       95.572    -229.981     -28.733
  H       95.436    -230.825     -30.257
  H       94.507    -231.358     -28.877

 3  4  5  6  7  8  9  10  11  12  23  26  30  31 0
 6-311+G(2d,p)
 ****
 33  35  36  37  38 0
 6-311+G(2d,p)
 ****
 1  2  13  14  15  16  17  18  19  20  21  22  24  25 0
 3-21G
 ****
 27  28  29  32  34  39  40  41  42  43  44  45  46  47  48  49 0
 3-21G
 ****


