%nproc=1
%NoSave
%Mem=1900MB
#P OB98/GEN NMR

erre ene a

0 1
  C     -516.672    -890.420      85.375
  O     -516.239    -891.640      85.979
  P     -517.046    -892.980      85.644
  C     -515.225    -894.210      84.158
  O     -516.015    -894.160      85.318
  C     -513.926    -894.990      84.449
  O     -513.015    -894.170      85.205
  C     -514.163    -896.250      85.267
  O     -514.500    -897.380      84.417
  C     -512.847    -896.430      85.993
  O     -511.838    -896.970      85.097
  C     -512.523    -894.960      86.336
  N     -513.083    -894.400      87.587
  C     -512.880    -895.040      88.803
  O     -512.241    -896.080      88.935
  N     -513.431    -894.430      89.913
  C     -513.997    -893.200      89.954
  O     -514.418    -892.690      90.979
  C     -514.059    -892.490      88.667
  C     -513.611    -893.110      87.562
  O     -517.724    -892.680      84.230
  O     -518.042    -893.370      86.687
  H     -511.771    -896.350      84.358
  H     -518.695    -892.670      84.323
  H     -513.342    -894.930      90.783
  H     -514.464    -891.480      88.670
  H     -513.669    -892.580      86.609
  H     -511.432    -894.810      86.394
  H     -512.924    -897.120      86.819
  H     -514.944    -896.100      86.007
  H     -513.441    -895.250      83.496
  H     -514.970    -893.200      83.807
  H     -515.788    -894.700      83.352
  P     -515.609    -898.420      84.890
  C     -517.294    -897.520      83.171
  O     -516.557    -898.640      83.604
  O     -516.306    -898.100      86.171
  O     -514.815    -899.810      84.986
  H     -514.521    -900.000      85.887
  H     -517.758    -897.730      82.221
  H     -516.638    -896.640      83.061
  H     -518.071    -897.270      83.915
  H     -516.038    -889.619      85.694
  H     -517.680    -890.215      85.669
  H     -516.623    -890.512      84.310

 3  4  5  6  7  8  9  10  11  12  13  23  28  29  30  31  32 0
 6-311+G(2d,p)
 ****
 33  34 0
 6-311+G(2d,p)
 ****
 1  2  14  15  16  17  18  19  20  21  22  24  25  26  27 0
 3-21G
 ****
 35  36  37  38  39  40  41  42  43  44  45 0
 3-21G
 ****


