%nproc=1
%NoSave
%Mem=1900MB
#P OB98/GEN NMR

erre ene a

0 1
  C     -890.620     650.956     128.567
  O     -890.310     649.757     129.265
  P     -889.630     648.564     128.439
  C     -890.370     646.186     127.740
  O     -890.770     647.510     128.041
  C     -891.580     645.359     127.251
  O     -892.480     645.108     128.354
  C     -892.380     646.064     126.150
  O     -892.930     645.080     125.240
  C     -893.560     646.655     126.899
  O     -894.680     646.880     126.042
  C     -893.780     645.591     127.979
  N     -898.330     646.919     129.754
  C     -898.010     646.190     128.637
  N     -899.040     645.849     127.818
  N     -896.780     645.823     128.323
  C     -895.850     646.250     129.211
  C     -896.060     646.982     130.376
  C     -897.410     647.379     130.692
  O     -897.760     648.054     131.663
  N     -894.890     647.189     131.036
  C     -893.950     646.640     130.263
  N     -894.510     646.083     129.133
  O     -888.790     647.789     129.585
  O     -888.720     649.003     127.329
  H     -894.740     646.107     125.432
  H     -887.840     647.985     129.482
  H     -899.280     647.191     129.944
  H     -892.890     646.636     130.463
  H     -894.340     644.729     127.576
  H     -893.280     647.620     127.347
  H     -900.000     646.133     127.971
  H     -891.830     646.811     125.580
  H     -898.830     645.340     126.966
  H     -891.210     644.390     126.900
  H     -889.970     645.714     128.636
  H     -889.600     646.192     126.975
  P     -892.590     645.284     123.689
  C     -893.600     646.793     121.819
  O     -893.590     646.436     123.179
  O     -893.160     643.950     123.006
  O     -891.140     645.514     123.399
  H     -892.670     643.774     122.170
  H     -894.580     646.553     121.390
  H     -892.820     646.262     121.242
  H     -893.420     647.868     121.732
  H     -891.066     651.657     129.242
  H     -891.305     650.740     127.774
  H     -889.723     651.374     128.160

 3  4  5  6  7  8  9  10  11  12  23  26  30  31 0
 6-311+G(2d,p)
 ****
 33  35  36  37  38 0
 6-311+G(2d,p)
 ****
 1  2  13  14  15  16  17  18  19  20  21  22  24  25 0
 3-21G
 ****
 27  28  29  32  34  39  40  41  42  43  44  45  46  47  48  49 0
 3-21G
 ****


