%nproc=1
%NoSave
%Mem=1900MB
#P OB98/GEN NMR

erre ene a

0 1
  C      196.637     -63.855     -38.296
  O      195.766     -62.902     -38.870
  H      196.535     -63.816     -37.208
  H      197.672     -63.626     -38.561
  H      196.379     -64.862     -38.638
  P      195.670     -62.872     -40.471
  C      197.163     -61.808     -42.323
  O      197.079     -62.304     -40.995
  C      198.140     -60.630     -42.378
  O      197.618     -59.557     -41.548
  C      199.538     -60.980     -41.850
  O      200.516     -60.281     -42.627
  C      199.520     -60.436     -40.431
  O      200.814     -60.156     -39.909
  C      198.651     -59.188     -40.610
  N      198.066     -58.725     -39.351
  C      198.559     -57.542     -38.811
  O      199.397     -56.819     -39.352
  N      198.050     -57.193     -37.585
  C      197.140     -57.905     -36.858
  O      196.741     -57.551     -35.756
  C      196.662     -59.151     -37.477
  C      197.141     -59.500     -38.675
  O      194.662     -61.664     -40.760
  O      195.241     -64.146     -41.117
  H      193.741     -61.989     -40.797
  H      200.699     -59.752     -39.024
  H      198.394     -56.336     -37.180
  H      195.947     -59.746     -36.926
  H      196.821     -60.419     -39.151
  H      199.234     -58.377     -41.066
  H      199.034     -61.154     -39.760
  H      199.747     -62.051     -41.871
  H      198.187     -60.254     -43.406
  H      196.173     -61.469     -42.642
  H      197.498     -62.612     -42.988
  P      201.903     -61.036     -42.921
  C      204.235     -61.074     -41.736
  O      202.941     -60.498     -41.819
  O      202.365     -60.335     -44.279
  O      201.753     -62.521     -42.992
  H      202.149     -59.386     -44.320
  H      204.788     -60.598     -40.953
  H      204.746     -60.939     -42.666
  H      204.147     -62.120     -41.526

 6  7  8  9  10  11  12  13  14  15  16  27  31  32  33  34  35 0
 6-311+G(2d,p)
 ****
 36  37 0
 6-311+G(2d,p)
 ****
 1  2  3  4  5  17  18  19  20  21  22  23  24  25 0
 3-21G
 ****
 26  28  29  30  38  39  40  41  42  43  44  45 0
 3-21G
 ****


