%nproc=1
%NoSave
%Mem=1900MB
#P OB98/GEN NMR

erre ene a

0 1
  C     -430.326     448.798     857.716
  O     -430.864     447.710     856.948
  P     -432.385     447.233     857.099
  C     -432.602     446.977     854.542
  O     -432.780     446.356     855.803
  C     -432.284     445.958     853.442
  O     -431.022     445.305     853.711
  C     -433.308     444.846     853.295
  O     -434.441     445.307     852.581
  C     -432.501     443.767     852.582
  O     -432.420     444.038     851.177
  C     -431.118     443.937     853.231
  N     -429.422     439.262     854.429
  C     -429.508     439.918     853.257
  N     -429.972     441.167     853.021
  C     -430.365     441.754     854.162
  C     -430.343     441.202     855.441
  C     -429.853     439.886     855.558
  N     -429.785     439.217     856.750
  N     -430.855     442.093     856.360
  C     -431.150     443.176     855.656
  N     -430.873     443.014     854.328
  O     -433.348     448.339     857.406
  O     -432.369     446.160     858.282
  H     -432.077     444.943     851.062
  H     -433.233     446.148     858.733
  H     -429.152     439.370     852.388
  H     -431.571     444.084     856.068
  H     -430.305     443.809     852.511
  H     -432.920     442.765     852.703
  H     -433.611     444.479     854.284
  H     -432.165     446.506     852.497
  H     -431.774     447.700     854.622
  H     -429.447     438.267     856.751
  H     -430.144     439.667     857.587
  H     -433.510     447.532     854.279
  P     -435.810     445.646     853.346
  C     -436.428     447.682     851.912
  O     -436.780     446.372     852.301
  O     -435.650     446.363     854.652
  O     -436.505     444.219     853.554
  H     -437.031     444.233     854.369
  H     -436.755     448.386     852.684
  H     -436.950     447.921     850.970
  H     -435.348     447.773     851.748
  H     -429.298     448.944     857.456
  H     -430.402     448.570     858.759
  H     -430.877     449.690     857.505

 3  4  5  6  7  8  9  10  11  12  22  25  29  30  31  32 0
 6-311+G(2d,p)
 ****
 33  36  37 0
 6-311+G(2d,p)
 ****
 1  2  13  14  15  16  17  18  19  20  21  23  24  26 0
 3-21G
 ****
 27  28  34  35  38  39  40  41  42  43  44  45  46  47  48 0
 3-21G
 ****


