%nproc=1
%NoSave
%Mem=1900MB
#P OB98/GEN NMR

erre ene a

0 1
  C      164.124     468.217    -474.117
  O      163.301     467.774    -475.177
  H      164.958     468.788    -474.536
  H      164.530     467.366    -473.562
  H      163.558     468.867    -473.442
  P      162.045     466.843    -474.832
  C      160.547     468.870    -474.241
  O      161.147     467.660    -473.786
  C      159.063     468.899    -473.882
  O      158.344     467.898    -474.628
  C      158.771     468.615    -472.412
  O      159.087     469.737    -471.614
  C      157.295     468.261    -472.487
  O      156.487     469.443    -472.591
  C      157.246     467.445    -473.804
  N      157.307     466.001    -473.603
  C      156.295     465.448    -472.808
  O      155.426     466.169    -472.316
  N      156.310     464.094    -472.583
  C      157.220     463.350    -473.132
  N      157.173     462.018    -472.880
  C      158.282     463.890    -474.000
  C      158.272     465.212    -474.181
  O      162.358     465.438    -474.414
  O      161.163     466.877    -476.168
  H      155.562     469.143    -472.485
  H      161.381     466.117    -476.740
  H      159.012     463.236    -474.447
  H      159.020     465.690    -474.806
  H      156.323     467.669    -474.357
  H      156.955     467.717    -471.605
  H      159.323     467.724    -472.087
  H      158.665     469.881    -474.179
  H      156.414     461.690    -472.286
  H      160.672     468.900    -475.329
  H      157.724     461.333    -473.373
  H      161.057     469.741    -473.812
  P      159.995     469.598    -470.299
  C      162.109     470.773    -471.171
  O      161.514     469.534    -470.822
  O      159.603     468.501    -469.370
  O      159.920     471.055    -469.637
  H      159.055     471.176    -469.169
  H      163.113     470.606    -471.502
  H      162.118     471.417    -470.317
  H      161.545     471.230    -471.957

 6  7  8  9  10  11  12  13  14  15  16  26  30  31  32  33  35 0
 6-311+G(2d,p)
 ****
 37  38 0
 6-311+G(2d,p)
 ****
 1  2  3  4  5  17  18  19  20  21  22  23  24  25 0
 3-21G
 ****
 27  28  29  34  36  39  40  41  42  43  44  45  46 0
 3-21G
 ****


