%nproc=1
%NoSave
%Mem=1900MB
#P OB98/GEN NMR

erre ene a

0 1
  C      522.243    -164.111      77.151
  O      523.136    -163.444      78.023
  P      522.733    -162.025      78.649
  C      524.282    -162.270      80.688
  O      523.971    -161.508      79.522
  C      525.794    -162.476      80.796
  O      526.254    -163.374      79.761
  C      526.613    -161.205      80.632
  O      526.560    -160.416      81.805
  C      527.983    -161.772      80.300
  O      528.668    -162.175      81.501
  C      527.619    -163.013      79.457
  N      529.922    -164.641      75.209
  C      530.098    -164.969      76.510
  N      529.468    -164.455      77.591
  C      528.602    -163.503      77.221
  C      528.341    -163.036      75.942
  C      529.040    -163.672      74.894
  N      528.823    -163.393      73.556
  N      527.408    -162.022      75.972
  C      527.114    -161.872      77.253
  N      527.764    -162.784      78.037
  O      521.409    -161.989      79.342
  O      522.741    -161.038      77.389
  H      528.967    -161.358      81.948
  H      521.851    -160.658      77.269
  H      530.833    -165.747      76.702
  H      526.433    -161.134      77.650
  H      528.240    -163.874      79.715
  H      528.628    -161.054      79.779
  H      526.244    -160.630      79.767
  H      526.000    -162.950      81.769
  H      523.778    -163.234      80.609
  H      529.266    -164.004      72.894
  H      527.968    -162.905      73.299
  H      523.903    -161.746      81.576
  P      526.767    -158.832      81.710
  C      525.743    -158.176      83.975
  O      526.931    -158.289      83.207
  O      525.761    -158.095      80.878
  O      528.238    -158.673      81.108
  H      528.282    -157.868      80.559
  H      525.204    -157.275      83.678
  H      526.012    -158.103      85.034
  H      525.101    -159.055      83.831
  H      522.678    -165.036      76.835
  H      522.053    -163.496      76.297
  H      521.324    -164.305      77.663

 3  4  5  6  7  8  9  10  11  12  22  25  29  30  31  32 0
 6-311+G(2d,p)
 ****
 33  36  37 0
 6-311+G(2d,p)
 ****
 1  2  13  14  15  16  17  18  19  20  21  23  24  26 0
 3-21G
 ****
 27  28  34  35  38  39  40  41  42  43  44  45  46  47  48 0
 3-21G
 ****


