%nproc=1
%NoSave
%Mem=1900MB
#P OB98/GEN NMR

erre ene a

0 1
  C      980.354     445.225      73.804
  O      980.713     444.119      74.607
  H      979.518     444.934      73.161
  H      981.192     445.528      73.170
  H      980.036     446.067      74.424
  P      981.968     444.268      75.591
  C      984.541     444.132      75.322
  O      983.280     444.164      74.669
  C      985.674     443.966      74.302
  O      985.644     442.638      73.742
  C      985.595     444.917      73.118
  O      985.995     446.218      73.497
  C      986.508     444.211      72.124
  O      987.887     444.453      72.442
  C      986.137     442.731      72.381
  N      985.149     442.213      71.436
  C      985.659     441.471      70.364
  O      986.866     441.309      70.236
  N      984.765     440.958      69.449
  C      983.492     441.123      69.616
  N      982.667     440.583      68.672
  C      982.910     441.852      70.761
  C      983.790     442.377      71.610
  O      981.987     443.371      76.790
  O      981.949     445.816      76.013
  H      988.402     444.170      71.662
  H      981.471     445.933      76.851
  H      981.846     441.962      70.858
  H      983.452     442.932      72.484
  H      987.032     442.098      72.320
  H      986.346     444.546      71.105
  H      984.575     444.928      72.704
  H      986.627     444.081      74.833
  H      983.112     440.070      67.915
  H      984.527     443.287      76.011
  H      981.663     440.500      68.780
  H      984.693     445.049      75.902
  P      985.216     447.525      72.980
  C      985.769     449.397      71.296
  O      986.051     448.057      71.721
  O      984.935     448.547      74.030
  O      983.899     446.933      72.294
  H      983.239     446.665      72.982
  H      986.382     449.641      70.454
  H      985.976     450.076      72.096
  H      984.738     449.474      71.021

 6  7  8  9  10  11  12  13  14  15  16  26  30  31  32  33  35 0
 6-311+G(2d,p)
 ****
 37  38 0
 6-311+G(2d,p)
 ****
 1  2  3  4  5  17  18  19  20  21  22  23  24  25 0
 3-21G
 ****
 27  28  29  34  36  39  40  41  42  43  44  45  46 0
 3-21G
 ****


