%nproc=1
%NoSave
%Mem=1900MB
#P OB98/GEN NMR

erre ene a

0 1
  C       53.457    -598.135    -140.300
  O       52.923    -597.499    -139.155
  P       52.706    -598.301    -137.784
  C       55.212    -598.023    -137.308
  O       54.114    -598.922    -137.344
  C       55.980    -598.135    -135.996
  O       55.182    -597.597    -134.915
  C       56.370    -599.572    -135.622
  O       57.684    -599.516    -135.035
  C       55.334    -599.954    -134.577
  O       55.771    -601.007    -133.746
  C       55.135    -598.602    -133.887
  N       53.888    -598.539    -133.143
  C       53.780    -599.320    -132.000
  O       54.685    -600.129    -131.715
  N       52.675    -599.193    -131.206
  C       51.660    -598.485    -131.626
  N       50.611    -598.332    -130.784
  C       51.634    -597.843    -132.956
  C       52.783    -597.874    -133.638
  O       51.574    -599.269    -137.793
  O       52.469    -597.152    -136.694
  H       51.634    -597.338    -136.213
  H       56.738    -600.906    -133.587
  H       50.733    -597.380    -133.316
  H       52.859    -597.410    -134.622
  H       55.961    -598.404    -133.188
  H       54.414    -600.268    -135.079
  H       56.395    -600.244    -136.480
  H       56.881    -597.510    -136.075
  H       50.681    -598.749    -129.862
  H       54.812    -597.002    -137.397
  H       49.951    -597.562    -130.882
  H       55.878    -598.199    -138.166
  P       58.633    -600.803    -135.191
  C       60.634    -600.049    -136.654
  O       59.386    -600.704    -136.600
  O       57.567    -601.972    -135.454
  O       59.471    -601.149    -134.005
  H       57.943    -602.825    -135.168
  H       60.953    -600.014    -137.698
  H       61.378    -600.600    -136.079
  H       60.548    -599.024    -136.293
  H       53.520    -597.430    -141.103
  H       52.821    -598.946    -140.587
  H       54.434    -598.510    -140.077

 3  4  5  6  7  8  9  10  11  12  13  24  27  28  29  30  32 0
 6-311+G(2d,p)
 ****
 34  35 0
 6-311+G(2d,p)
 ****
 1  2  14  15  16  17  18  19  20  21  22  23  25  26 0
 3-21G
 ****
 31  33  36  37  38  39  40  41  42  43  44  45  46 0
 3-21G
 ****


