%nproc=1
%NoSave
%Mem=1900MB
#P OB98/GEN NMR

erre ene a

0 1
  C       26.729     -66.347       7.956
  O       26.660     -66.053       9.345
  P       25.211     -65.890      10.015
  C       25.242     -63.336       9.567
  O       25.102     -64.372      10.529
  C       25.630     -62.015      10.231
  O       25.791     -61.000       9.204
  C       24.604     -61.483      11.236
  O       25.330     -60.798      12.263
  C       23.819     -60.471      10.423
  O       23.142     -59.525      11.245
  C       24.937     -59.892       9.559
  N       24.316     -55.431       7.139
  C       24.893     -55.740       8.320
  N       25.021     -56.953       8.897
  C       24.472     -57.906       8.125
  C       23.818     -57.737       6.916
  C       23.752     -56.426       6.414
  N       23.174     -56.110       5.207
  N       23.365     -58.949       6.438
  C       23.736     -59.832       7.341
  N       24.429     -59.251       8.365
  O       25.354     -66.734      11.367
  O       24.070     -66.373       9.189
  H       23.803     -59.088      11.815
  H       24.797     -67.536      11.319
  H       25.315     -54.903       8.871
  H       23.528     -60.892       7.301
  H       25.544     -59.158      10.104
  H       23.070     -60.987       9.812
  H       23.965     -62.257      11.675
  H       26.607     -62.145      10.712
  H       24.285     -63.203       9.054
  H       23.287     -55.174       4.854
  H       22.921     -56.863       4.575
  H       25.996     -63.624       8.827
  P       25.500     -61.557      13.664
  C       22.992     -61.130      14.164
  O       24.328     -61.032      14.618
  O       26.821     -60.896      14.284
  O       25.631     -63.040      13.543
  H       27.263     -61.530      14.878
  H       22.340     -61.312      15.022
  H       22.864     -61.945      13.443
  H       22.703     -60.188      13.691
  H       27.754     -66.425       7.658
  H       26.255     -65.564       7.402
  H       26.230     -67.273       7.762

 3  4  5  6  7  8  9  10  11  12  22  25  29  30  31  32 0
 6-311+G(2d,p)
 ****
 33  36  37 0
 6-311+G(2d,p)
 ****
 1  2  13  14  15  16  17  18  19  20  21  23  24  26 0
 3-21G
 ****
 27  28  34  35  38  39  40  41  42  43  44  45  46  47  48 0
 3-21G
 ****


