%nproc=1
%NoSave
%Mem=1900MB
#P OB98/GEN NMR

erre ene a

0 1
  C      645.970    -167.652     762.491
  O      646.894    -168.688     762.252
  H      645.004    -167.930     762.063
  H      646.310    -166.720     762.020
  H      645.843    -167.489     763.570
  P      648.381    -168.472     762.824
  C      650.559    -167.377     761.939
  O      649.227    -167.799     761.649
  C      651.533    -168.009     760.944
  O      651.102    -167.745     759.590
  C      652.947    -167.482     761.035
  O      653.666    -168.037     762.124
  C      653.509    -167.886     759.681
  O      653.960    -169.242     759.679
  C      652.285    -167.717     758.751
  N      652.152    -165.732     754.041
  C      652.005    -167.019     754.485
  N      652.039    -167.456     755.770
  C      652.234    -166.432     756.627
  C      652.414    -165.090     756.310
  C      652.361    -164.758     754.939
  N      652.542    -163.467     754.478
  N      652.618    -164.343     757.440
  C      652.573    -165.213     758.447
  N      652.334    -166.481     757.994
  O      648.952    -169.969     762.901
  O      648.451    -167.785     764.149
  H      653.182    -169.791     759.926
  H      648.893    -170.295     763.831
  H      651.832    -167.771     753.727
  H      652.711    -164.974     759.489
  H      652.196    -168.548     758.036
  H      654.350    -167.248     759.404
  H      652.943    -166.389     761.107
  H      651.514    -169.109     761.091
  H      650.828    -167.678     762.952
  H      650.605    -166.286     761.857
  H      652.563    -163.309     753.485
  H      652.797    -162.745     755.137
  P      654.872    -167.186     762.748
  C      656.880    -165.922     761.660
  O      655.989    -167.040     761.629
  O      655.525    -168.161     763.827
  O      654.449    -165.884     763.351
  H      655.832    -167.639     764.612
  H      657.561    -165.986     760.837
  H      657.429    -165.929     762.578
  H      656.317    -165.015     761.588

 6  7  8  9  10  11  12  13  14  15  25  28  32  33  34  35 0
 6-311+G(2d,p)
 ****
 36  37  40 0
 6-311+G(2d,p)
 ****
 1  2  3  4  5  16  17  18  19  20  21  22  23  24 0
 3-21G
 ****
 26  27  29  30  31  38  39 41  42  43  44  45  46  47  48 0
 3-21G
 ****


