%nproc=1
%NoSave
%Mem=1900MB
#P OB98/GEN NMR

erre ene a

0 1
  C     1045.981     -44.273     -40.287
  O     1045.178     -45.436     -40.211
  H     1046.305     -44.010     -39.271
  H     1045.415     -43.427     -40.700
  H     1046.872     -44.457     -40.897
  P     1044.522     -45.985     -41.571
  C     1042.410     -44.534     -41.218
  O     1043.491     -44.862     -42.082
  C     1042.259     -43.013     -41.099
  O     1042.370     -42.465     -42.433
  C     1040.917     -42.582     -40.507
  O     1041.032     -41.708     -39.386
  C     1040.135     -42.083     -41.721
  O     1039.132     -41.135     -41.432
  C     1041.253     -41.577     -42.653
  N     1040.878     -41.559     -44.066
  C     1040.034     -40.538     -44.480
  O     1039.593     -39.635     -43.770
  N     1039.683     -40.569     -45.823
  C     1040.093     -41.491     -46.732
  O     1039.749     -41.450     -47.906
  C     1040.977     -42.556     -46.223
  C     1041.324     -42.542     -44.918
  O     1043.947     -47.366     -41.483
  O     1045.703     -45.918     -42.647
  H     1038.726     -40.863     -42.268
  H     1046.078     -46.805     -42.781
  H     1039.067     -39.818     -46.125
  H     1041.305     -43.298     -46.918
  H     1041.970     -43.309     -44.518
  H     1041.540     -40.577     -42.363
  H     1039.641     -42.949     -42.197
  H     1040.375     -43.467     -40.088
  H     1043.108     -42.619     -40.507
  H     1042.617     -44.972     -40.238
  H     1041.480     -44.967     -41.610
  P     1040.887     -42.169     -37.864
  C     1038.270     -41.896     -37.794
  O     1039.421     -42.740     -37.658
  O     1041.383     -41.178     -36.846
  O     1041.838     -43.477     -37.773
  H     1042.205     -43.479     -36.854
  H     1037.384     -42.470     -37.617
  H     1038.240     -41.490     -38.784
  H     1038.327     -41.098     -37.083

 6  7  8  9  10  11  12  13  14  15  16  26  31  32  33  34  35 0
 6-311+G(2d,p)
 ****
 36  37 0
 6-311+G(2d,p)
 ****
 1  2  3  4  5  17  18  19  20  21  22  23  24  25 0
 3-21G
 ****
 27  28  29  30  38  39  40  41  42  43  44  45 0
 3-21G
 ****


