%nproc=1
%NoSave
%Mem=1900MB
#P OB98/GEN NMR

erre ene a

0 1
  C      222.593     -22.160     217.701
  O      223.409     -22.510     216.601
  H      221.560     -22.068     217.354
  H      222.911     -21.202     218.122
  H      222.641     -22.939     218.466
  P      224.979     -22.660     216.892
  C      224.779     -24.516     218.669
  O      225.155     -24.195     217.336
  C      225.169     -25.957     219.003
  O      224.984     -26.167     220.426
  C      224.330     -27.002     218.264
  O      225.163     -28.100     217.897
  C      223.324     -27.453     219.308
  O      222.836     -28.768     219.061
  C      224.130     -27.311     220.598
  N      220.991     -29.704     223.830
  C      221.817     -30.163     222.865
  N      222.635     -29.454     222.058
  C      222.578     -28.144     222.358
  C      221.784     -27.529     223.310
  C      220.951     -28.372     224.067
  N      220.088     -27.910     225.033
  N      221.976     -26.161     223.287
  C      222.881     -25.957     222.348
  N      223.262     -27.125     221.748
  O      225.563     -21.654     217.826
  O      225.585     -22.657     215.413
  H      222.326     -28.755     218.224
  H      225.062     -23.217     214.810
  H      221.818     -31.240     222.717
  H      223.277     -24.989     222.059
  H      224.756     -28.188     220.801
  H      222.465     -26.770     219.312
  H      223.842     -26.596     217.378
  H      226.238     -26.087     218.800
  H      223.698     -24.393     218.795
  H      219.537     -28.584     225.541
  H      220.057     -26.921     225.239
  H      225.289     -23.819     219.341
  P      225.212     -28.538     216.356
  C      226.975     -26.953     215.336
  O      226.692     -28.272     215.795
  O      224.100     -28.038     215.498
  O      225.174     -30.140     216.453
  H      224.635     -30.489     215.716
  H      227.986     -26.905     214.990
  H      226.840     -26.259     216.139
  H      226.311     -26.704     214.534

 6  7  8  9  10  11  12  13  14  15  25  28  32  33  34  35 0
 6-311+G(2d,p)
 ****
 36  39  40 0
 6-311+G(2d,p)
 ****
 1  2  3  4  5  16  17  18  19  20  21  22  23  24 0
 3-21G
 ****
 26  27  29  30  31  37  38  41  42  43  44  45  46  47 0
 3-21G
 ****
 48 0
 3-21G
 ****


