%nproc=1
%NoSave
%Mem=1900MB
#P OB98/GEN NMR

erre ene a

0 1
  C      734.281     -19.108     423.208
  O      734.616     -19.830     422.044
  H      734.597     -19.687     424.083
  H      733.202     -18.960     423.265
  H      734.792     -18.143     423.229
  P      734.410     -19.130     420.617
  C      732.037     -20.111     420.377
  O      732.832     -18.930     420.418
  C      731.198     -20.129     419.092
  O      730.481     -18.883     418.963
  C      732.023     -20.269     417.825
  O      732.482     -21.596     417.646
  C      731.025     -19.788     416.783
  O      730.113     -20.825     416.421
  C      730.298     -18.657     417.547
  N      730.773     -17.333     417.149
  C      729.833     -16.301     417.183
  O      728.663     -16.452     417.533
  N      730.277     -15.087     416.743
  C      731.483     -14.843     416.160
  O      731.737     -13.806     415.547
  C      732.452     -15.946     416.209
  C      732.049     -17.125     416.691
  O      735.111     -19.775     419.471
  O      734.930     -17.628     420.856
  H      735.827     -17.537     420.478
  H      729.484     -20.432     415.794
  H      729.580     -14.341     416.721
  H      733.445     -15.767     415.810
  H      732.736     -17.967     416.705
  H      729.211     -18.713     417.357
  H      731.526     -19.449     415.880
  H      732.868     -19.575     417.852
  H      730.464     -20.945     419.180
  H      731.370     -20.114     421.245
  H      732.693     -20.985     420.425
  P      733.959     -21.874     417.072
  C      733.377     -21.007     414.720
  O      734.220     -20.853     415.858
  O      734.262     -23.302     416.772
  O      734.921     -21.311     418.215
  H      735.594     -21.989     418.427
  H      733.639     -20.279     413.981
  H      732.357     -20.868     415.011
  H      733.502     -21.989     414.314

 6  7  8  9  10  11  12  13  14  15  16  27  31  32  33  34  35 0
 6-311+G(2d,p)
 ****
 36  37 0
 6-311+G(2d,p)
 ****
 1  2  3  4  5  17  18  19  20  21  22  23  24  25 0
 3-21G
 ****
 26  28  29  30  38  39  40  41  42  43  44  45 0
 3-21G
 ****


