%nproc=1
%NoSave
%Mem=1900MB
#P OB98/GEN NMR

erre ene a

0 1
  C       58.830    -113.874      -7.432
  O       57.722    -113.952      -6.554
  P       56.841    -115.283      -6.464
  C       57.605    -115.956      -4.113
  O       57.608    -116.306      -5.491
  C       56.804    -116.960      -3.287
  O       57.312    -118.298      -3.543
  C       56.860    -116.732      -1.769
  O       55.590    -117.127      -1.244
  C       57.924    -117.723      -1.322
  O       57.838    -118.043       0.061
  C       57.625    -118.885      -2.262
  N       59.863    -123.092      -0.409
  C       58.772    -122.405      -0.011
  N       58.254    -121.279      -0.541
  C       58.984    -120.870      -1.592
  C       60.138    -121.448      -2.095
  C       60.573    -122.629      -1.465
  N       61.664    -123.361      -1.880
  N       60.631    -120.699      -3.149
  C       59.791    -119.694      -3.275
  N       58.745    -119.791      -2.398
  O       56.427    -115.864      -7.776
  O       55.568    -114.847      -5.598
  H       58.510    -118.722       0.263
  H       54.786    -114.763      -6.179
  H       58.241    -122.817       0.843
  H       59.890    -118.876      -3.976
  H       56.756    -119.468      -1.935
  H       58.920    -117.303      -1.510
  H       57.098    -115.704      -1.482
  H       55.764    -116.938      -3.637
  H       57.149    -114.964      -4.018
  H       61.807    -124.257      -1.443
  H       62.045    -123.192      -2.809
  H       58.635    -115.898      -3.742
  P       54.919    -116.283      -0.057
  C       53.292    -115.283      -1.761
  O       54.230    -115.009      -0.738
  O       55.812    -115.988       1.102
  O       53.664    -117.183       0.378
  H       53.355    -116.908       1.262
  H       53.823    -115.486      -2.695
  H       52.648    -114.410      -1.899
  H       52.671    -116.145      -1.507
  H       59.286    -112.910      -7.346
  H       58.499    -114.024      -8.438
  H       59.543    -114.629      -7.175

 3  4  5  6  7  8  9  10  11  12  22  25  29  30  31  32 0
 6-311+G(2d,p)
 ****
 33  36  37 0
 6-311+G(2d,p)
 ****
 1  2  13  14  15  16  17  18  19  20  21  23  24  26 0
 3-21G
 ****
 27  28  34  35  38  39  40  41  42  43  44  45  46  47  48 0
 3-21G
 ****


