%nproc=1
%NoSave
%Mem=1900MB
#P OB98/GEN NMR

erre ene a

0 1
  C      232.648     113.533     -95.991
  O      231.710     112.775     -95.245
  P      232.276     111.786     -94.112
  C      231.925     113.554     -92.231
  O      232.831     112.715     -92.926
  C      232.380     113.756     -90.785
  O      231.591     114.822     -90.195
  C      232.225     112.525     -89.883
  O      233.289     112.571     -88.925
  C      230.901     112.777     -89.187
  O      230.768     112.041     -87.974
  C      230.956     114.290     -89.012
  N      227.367     115.604     -85.700
  C      228.560     114.937     -85.494
  N      228.862     114.632     -84.213
  N      229.383     114.602     -86.453
  C      228.955     114.989     -87.678
  C      227.779     115.617     -88.014
  C      226.898     116.016     -86.942
  O      225.874     116.683     -87.071
  N      227.658     115.763     -89.370
  C      228.794     115.297     -89.846
  N      229.632     114.858     -88.856
  O      233.601     111.196     -94.784
  O      231.334     110.715     -93.659
  H      229.890     112.245     -87.595
  H      233.420     110.346     -95.230
  H      226.783     115.852     -84.919
  H      229.067     115.256     -90.890
  H      231.551     114.592     -88.139
  H      230.074     112.487     -89.848
  H      228.290     114.887     -83.422
  H      232.244     111.578     -90.429
  H      229.745     114.172     -84.029
  H      233.425     114.092     -90.796
  H      230.938     113.080     -92.221
  H      231.841     114.515     -92.750
  P      233.757     111.191     -88.256
  C      235.080     110.521     -90.380
  O      234.085     110.167     -89.440
  O      232.393     110.615     -87.640
  O      234.800     111.330     -87.196
  H      232.588     110.106     -86.832
  H      235.461     109.610     -90.848
  H      235.912     111.048     -89.905
  H      234.641     111.158     -91.150
  H      232.130     114.141     -96.703
  H      233.313     112.871     -96.505
  H      233.209     114.159     -95.328

 3  4  5  6  7  8  9  10  11  12  23  26  30  31 0
 6-311+G(2d,p)
 ****
 33  35  36  37  38 0
 6-311+G(2d,p)
 ****
 1  2  13  14  15  16  17  18  19  20  21  22  24  25 0
 3-21G
 ****
 27  28  29  32  34  39  40  41  42  43  44  45  46  47  48  49 0
 3-21G
 ****


