%nproc=1
%NoSave
%Mem=1900MB
#P OB98/GEN NMR

erre ene a

0 1
  C      -79.197    -893.470     366.745
  O      -78.169    -894.380     366.412
  H      -80.177    -893.960     366.651
  H      -79.062    -893.160     367.786
  H      -79.159    -892.580     366.103
  P      -78.175    -894.950     364.915
  C      -80.129    -896.110     363.649
  O      -79.391    -896.000     364.853
  C      -81.035    -897.330     363.694
  O      -81.996    -897.210     364.767
  C      -81.853    -897.570     362.430
  O      -81.093    -898.210     361.409
  C      -82.932    -898.490     362.960
  O      -82.412    -899.820     363.113
  C      -83.213    -897.860     364.341
  N      -88.030    -896.920     365.798
  C      -87.244    -898.010     365.957
  N      -85.977    -898.180     365.536
  C      -85.529    -897.090     364.886
  C      -86.236    -895.910     364.649
  C      -87.541    -895.850     365.139
  N      -88.360    -894.750     364.962
  N      -85.456    -895.040     363.914
  C      -84.300    -895.640     363.764
  N      -84.304    -896.890     364.322
  O      -76.882    -895.900     364.871
  O      -78.171    -893.930     363.822
  H      -81.857    -900.000     362.331
  H      -76.604    -896.040     363.944
  H      -87.687    -898.840     366.486
  H      -83.439    -895.230     363.244
  H      -83.471    -898.620     365.097
  H      -83.798    -898.560     362.306
  H      -82.312    -896.640     362.069
  H      -80.406    -898.210     363.915
  H      -79.441    -896.190     362.810
  H      -89.327    -894.880     365.190
  H      -88.048    -894.010     364.350
  H      -80.738    -895.200     363.521
  P      -81.756    -898.310     359.947
  C      -84.141    -898.930     359.111
  O      -83.202    -898.970     360.167
  O      -80.918    -899.470     359.253
  O      -81.747    -897.030     359.169
  H      -80.917    -899.360     358.280
  H      -85.046    -899.410     359.420
  H      -83.741    -899.438     358.259
  H      -84.347    -897.912     358.855

 6  7  8  9  10  11  12  13  14  15  25  28  32  33  34  35 0
 6-311+G(2d,p)
 ****
 36  39  40 0
 6-311+G(2d,p)
 ****
 1  2  3  4  5  16  17  18  19  20  21  22  23  24 0
 3-21G
 ****
 26  27  29  30  31  37  38  41  42  43  44  45  46  47 0
 3-21G
 ****
 48 0
 3-21G
 ****


