%nproc=1
%NoSave
%Mem=1900MB
#P OB98/GEN NMR

erre ene a

0 1
  C     -162.340     264.154     124.835
  O     -162.622     264.122     123.451
  H     -163.252     263.896     125.383
  H     -162.021     265.154     125.135
  H     -161.562     263.426     125.077
  P     -161.437     264.586     122.468
  C     -159.859     266.639     122.791
  O     -161.175     266.114     122.890
  C     -159.811     268.038     123.391
  O     -160.223     268.010     124.776
  C     -158.422     268.675     123.396
  O     -158.034     269.184     122.132
  C     -158.650     269.788     124.408
  O     -159.420     270.840     123.802
  C     -159.470     269.040     125.482
  N     -158.636     268.441     126.526
  C     -158.870     268.867     127.840
  O     -159.738     269.704     128.081
  N     -158.089     268.357     128.846
  C     -157.168     267.483     128.577
  N     -156.424     267.021     129.619
  C     -156.895     267.001     127.216
  C     -157.654     267.509     126.249
  O     -162.167     264.731     121.051
  O     -160.222     263.719     122.456
  H     -159.543     271.523     124.487
  H     -161.555     265.156     120.399
  H     -156.106     266.279     127.036
  H     -157.510     267.203     125.218
  H     -160.197     269.707     125.955
  H     -157.726     270.236     124.772
  H     -157.667     267.987     123.788
  H     -160.532     268.661     122.847
  H     -156.596     267.418     130.533
  H     -159.584     266.672     121.730
  H     -155.594     266.459     129.492
  H     -159.157     265.990     123.318
  P     -156.464     269.440     121.893
  C     -154.650     270.929     123.014
  O     -156.029     270.622     122.884
  O     -156.427     270.134     120.454
  O     -155.613     268.210     121.951
  H     -155.622     269.873     119.963
  H     -154.528     271.735     123.707
  H     -154.257     271.216     122.061
  H     -154.125     270.068     123.372

 6  7  8  9  10  11  12  13  14  15  16  26  30  31  32  33  35 0
 6-311+G(2d,p)
 ****
 37  38 0
 6-311+G(2d,p)
 ****
 1  2  3  4  5  17  18  19  20  21  22  23  24  25 0
 3-21G
 ****
 27  28  29  34  36  39  40  41  42  43  44  45  46 0
 3-21G
 ****


