%nproc=1
%NoSave
%Mem=1900MB
#P OB98/GEN NMR

erre ene a

0 1
  C      -33.687       4.073      -4.558
  O      -32.974       4.095      -5.777
  H      -33.430       3.158      -4.017
  H      -34.763       4.079      -4.748
  H      -33.411       4.936      -3.946
  P      -33.253       5.334      -6.758
  C      -34.713       3.837      -8.299
  O      -34.631       5.019      -7.515
  C      -36.149       3.632      -8.768
  O      -37.029       3.526      -7.625
  C      -36.701       4.781      -9.600
  O      -36.241       4.745     -10.939
  C      -38.195       4.528      -9.483
  O      -38.643       3.557     -10.442
  C      -38.329       3.987      -8.042
  N      -38.876       4.985      -7.129
  C      -40.229       4.857      -6.834
  O      -40.940       3.968      -7.302
  N      -40.754       5.812      -6.007
  C      -40.082       6.881      -5.491
  O      -40.629       7.743      -4.814
  C      -38.650       6.957      -5.825
  C      -38.122       6.026      -6.624
  O      -32.142       5.152      -7.896
  O      -33.185       6.678      -6.113
  H      -31.412       5.784      -7.752
  H      -39.613       3.499     -10.339
  H      -41.737       5.742      -5.791
  H      -38.084       7.790      -5.425
  H      -37.073       6.073      -6.901
  H      -38.993       3.114      -8.024
  H      -38.771       5.437      -9.662
  H      -36.466       5.741      -9.124
  H      -36.200       2.688      -9.329
  H      -34.407       2.976      -7.695
  H      -34.032       3.928      -9.152
  P      -35.762       6.115     -11.622
  C      -38.324       6.593     -11.961
  O      -37.038       7.087     -11.634
  O      -35.602       5.662     -13.146
  O      -34.537       6.697     -11.004
  H      -36.266       5.006     -13.420
  H      -39.035       7.391     -11.913
  H      -38.599       5.827     -11.266
  H      -38.309       6.187     -12.951

 6  7  8  9  10  11  12  13  14  15  16  27  31  32  33  34  35 0
 6-311+G(2d,p)
 ****
 36  37 0
 6-311+G(2d,p)
 ****
 1  2  3  4  5  17  18  19  20  21  22  23  24  25 0
 3-21G
 ****
 26  28  29  30  38  39  40  41  42  43  44  45 0
 3-21G
 ****


