%nproc=1
%NoSave
%Mem=1900MB
#P OB98/GEN NMR

erre ene a

0 1
  C      301.837      78.063    -240.044
  O      302.723      77.935    -241.158
  P      303.089      76.442    -241.626
  C      305.569      76.113    -240.937
  O      304.208      75.854    -240.629
  C      306.513      75.135    -240.218
  O      306.437      75.310    -238.776
  C      306.211      73.667    -240.515
  O      307.459      72.963    -240.506
  C      305.402      73.231    -239.305
  O      305.427      71.815    -239.152
  C      306.102      74.030    -238.197
  N      305.283      74.182    -236.995
  C      305.019      73.027    -236.250
  O      305.414      71.931    -236.655
  N      304.282      73.128    -235.098
  C      303.805      74.284    -234.743
  N      303.084      74.323    -233.588
  C      304.005      75.519    -235.525
  C      304.750      75.394    -236.623
  O      303.881      76.664    -242.997
  O      301.897      75.566    -241.821
  H      304.804      71.574    -238.429
  H      303.518      76.085    -243.690
  H      303.569      76.456    -235.201
  H      304.955      76.245    -237.262
  H      307.039      73.545    -237.901
  H      304.354      73.552    -239.414
  H      305.699      73.509    -241.469
  H      307.539      75.372    -240.519
  H      302.975      73.455    -233.077
  H      305.826      77.136    -240.650
  H      302.659      75.164    -233.219
  H      305.704      76.060    -242.024
  P      308.344      72.965    -241.843
  C      307.300      70.709    -242.493
  O      307.524      72.051    -242.882
  O      309.548      71.987    -241.438
  O      308.853      74.271    -242.359
  H      310.208      71.958    -242.158
  H      306.631      70.242    -243.219
  H      306.822      70.674    -241.501
  H      308.245      70.157    -242.474
  H      301.675      79.100    -239.835
  H      302.270      77.590    -239.188
  H      300.903      77.596    -240.276

 3  4  5  6  7  8  9  10  11  12  13  21  23  27  28  29  30  32 0
 6-311+G(2d,p)
 ****
 34  35 0
 6-311+G(2d,p)
 ****
 1  2  14  15  16  17  18  19  20  22  24  25  26 0
 3-21G
 ****
 31  33  36  37  38  39  40  41  42  43  44  45  46 0
 3-21G
 ****


