%nproc=1
%NoSave
%Mem=1900MB
#P OB98/GEN NMR

erre ene a

0 1
  C     1044.263    -652.941    -200.675
  O     1044.256    -653.059    -202.104
  P     1045.527    -653.544    -202.951
  C     1044.601    -655.452    -204.430
  O     1045.367    -655.120    -203.280
  C     1044.518    -656.974    -204.626
  O     1045.844    -657.581    -204.457
  C     1043.562    -657.687    -203.647
  O     1042.916    -658.720    -204.403
  C     1044.524    -658.274    -202.636
  O     1043.971    -659.313    -201.855
  C     1045.675    -658.695    -203.561
  N     1046.927    -659.027    -202.906
  C     1046.934    -660.138    -202.042
  O     1045.910    -660.767    -201.796
  N     1048.124    -660.504    -201.452
  C     1049.203    -659.816    -201.673
  N     1050.340    -660.238    -201.068
  C     1049.227    -658.644    -202.571
  C     1048.083    -658.320    -203.132
  O     1046.833    -653.202    -202.325
  O     1045.381    -652.840    -204.383
  H     1046.263    -652.612    -204.721
  H     1044.689    -659.724    -201.351
  H     1050.155    -658.101    -202.738
  H     1048.026    -657.474    -203.827
  H     1045.341    -659.553    -204.183
  H     1044.839    -657.481    -201.947
  H     1042.804    -657.032    -203.226
  H     1044.222    -657.159    -205.662
  H     1050.273    -661.059    -200.473
  H     1045.085    -655.005    -205.311
  H     1051.233    -659.784    -201.178
  H     1043.605    -655.020    -204.329
  P     1041.560    -658.401    -205.201
  C     1042.304    -659.880    -207.218
  O     1041.859    -658.607    -206.765
  O     1041.503    -656.793    -205.100
  O     1040.310    -658.993    -204.646
  H     1040.577    -656.495    -205.181
  H     1041.755    -660.141    -208.123
  H     1042.159    -660.663    -206.479
  H     1043.371    -659.796    -207.456
  H     1043.305    -652.601    -200.340
  H     1045.014    -652.239    -200.379
  H     1044.475    -653.895    -200.239

 3  4  5  6  7  8  9  10  11  12  13  24  27  28  29  30  32 0
 6-311+G(2d,p)
 ****
 34  35 0
 6-311+G(2d,p)
 ****
 1  2  14  15  16  17  18  19  20  21  22  23  25  26 0
 3-21G
 ****
 31  33  36  37  38  39  40  41  42  43  44  45  46 0
 3-21G
 ****


