%nproc=1
%NoSave
%Mem=1900MB
#P OB98/GEN NMR

erre ene a

0 1
  C     -193.856     143.426    -100.684
  O     -195.264     143.412    -100.800
  H     -193.577     142.968     -99.732
  H     -193.488     144.454    -100.697
  H     -193.393     142.856    -101.494
  P     -195.931     143.842    -102.193
  C     -195.887     141.487    -103.243
  O     -195.389     142.817    -103.301
  C     -196.641     141.156    -104.529
  O     -195.747     141.207    -105.661
  C     -197.255     139.760    -104.548
  O     -198.423     139.709    -103.750
  C     -197.488     139.575    -106.041
  O     -198.683     140.248    -106.460
  C     -196.232     140.256    -106.635
  N     -195.183     139.308    -107.007
  C     -195.243     138.791    -108.298
  O     -196.143     139.071    -109.091
  N     -194.240     137.923    -108.642
  C     -193.255     137.471    -107.813
  O     -192.408     136.649    -108.157
  C     -193.259     138.023    -106.451
  C     -194.208     138.901    -106.116
  O     -195.803     145.284    -102.557
  O     -197.464     143.410    -102.025
  H     -198.741     140.139    -107.429
  H     -198.003     144.192    -101.802
  H     -194.274     137.530    -109.570
  H     -192.496     137.681    -105.764
  H     -194.229     139.315    -105.114
  H     -196.501     140.834    -107.528
  H     -197.601     138.527    -106.322
  H     -196.519     139.019    -104.212
  H     -197.415     141.922    -104.675
  H     -196.567     141.402    -102.388
  H     -195.046     140.800    -103.100
  P     -198.841     138.362    -102.997
  C     -198.220     139.377    -100.727
  O     -198.005     138.294    -101.625
  O     -198.776     137.122    -103.827
  O     -200.335     138.645    -102.498
  H     -200.969     138.146    -103.050
  H     -197.622     139.238     -99.851
  H     -199.253     139.412    -100.451
  H     -197.947     140.295    -101.204

 6  7  8  9  10  11  12  13  14  15  16  26  31  32  33  34  35 0
 6-311+G(2d,p)
 ****
 36  37 0
 6-311+G(2d,p)
 ****
 1  2  3  4  5  17  18  19  20  21  22  23  24  25 0
 3-21G
 ****
 27  28  29  30  38  39  40  41  42  43  44  45 0
 3-21G
 ****


