%nproc=1
%NoSave
%Mem=1900MB
#P OB98/GEN NMR

erre ene a

0 1
  C       19.909    -365.921     383.641
  O       19.167    -365.555     384.811
  P       18.690    -366.714     385.794
  C       19.994    -365.937     387.882
  O       19.826    -366.964     386.907
  C       21.301    -366.149     388.662
  O       22.430    -365.900     387.768
  C       21.509    -365.200     389.853
  O       21.001    -365.594     391.122
  C       23.032    -365.195     389.973
  O       23.469    -366.348     390.728
  C       23.505    -365.316     388.528
  N       27.477    -362.423     387.086
  C       27.407    -363.651     387.618
  N       26.318    -364.358     387.983
  C       25.195    -363.661     387.717
  C       25.106    -362.391     387.159
  C       26.321    -361.763     386.839
  N       26.390    -360.496     386.292
  N       23.788    -362.005     387.043
  C       23.089    -363.008     387.541
  N       23.896    -364.047     387.938
  O       18.154    -367.952     385.146
  O       17.539    -365.990     386.649
  H       23.228    -366.176     391.653
  H       16.818    -366.635     386.822
  H       28.371    -364.148     387.802
  H       22.017    -363.037     387.618
  H       24.370    -365.981     388.431
  H       23.404    -364.310     390.504
  H       21.153    -364.186     389.609
  H       21.363    -367.186     389.000
  H       19.152    -365.945     388.575
  H       27.299    -360.098     386.138
  H       25.535    -359.974     386.156
  H       19.968    -364.975     387.353
  P       19.689    -364.910     391.754
  C       18.292    -367.062     391.257
  O       18.444    -365.671     391.094
  O       19.647    -363.422     391.638
  O       19.702    -365.474     393.250
  H       19.526    -366.416     393.326
  H       17.283    -367.343     390.925
  H       18.407    -367.347     392.309
  H       19.029    -367.598     390.647
  H       20.156    -365.041     383.085
  H       19.317    -366.572     383.032
  H       20.808    -366.423     383.931

 3  4  5  6  7  8  9  10  11  12  22  25  29  30  31  32 0
 6-311+G(2d,p)
 ****
 33  36  37 0
 6-311+G(2d,p)
 ****
 1  2  13  14  15  16  17  18  19  20  21  23  24  26 0
 3-21G
 ****
 27  28  34  35  38  39  40  41  42  43  44  45  46  47  48 0
 3-21G
 ****


