%nproc=1
%NoSave
%Mem=1900MB
#P OB98/GEN NMR

erre ene a

0 1
  C      190.922     488.855    -352.535
  O      191.280     487.705    -351.760
  P      192.658     487.813    -350.944
  C      191.298     487.319    -348.789
  O      192.310     488.117    -349.399
  C      190.788     487.964    -347.507
  O      191.872     488.152    -346.546
  C      190.129     489.329    -347.701
  O      189.065     489.452    -346.754
  C      191.239     490.301    -347.343
  O      190.732     491.591    -347.041
  C      191.852     489.561    -346.158
  N      194.455     492.263    -342.773
  C      193.103     492.079    -342.914
  N      192.314     492.678    -341.976
  N      192.566     491.387    -343.871
  C      193.460     490.818    -344.716
  C      194.840     490.904    -344.677
  C      195.420     491.710    -343.614
  O      196.623     491.901    -343.463
  N      195.405     490.174    -345.691
  C      194.381     489.705    -346.362
  N      193.172     490.015    -345.782
  O      193.277     489.201    -351.468
  O      193.592     486.668    -351.177
  H      191.483     492.199    -346.925
  H      193.972     489.021    -352.134
  H      194.839     492.821    -342.031
  H      194.450     489.108    -347.250
  H      191.231     489.647    -345.250
  H      191.972     490.400    -348.143
  H      192.674     493.180    -341.190
  H      189.758     489.516    -348.728
  H      191.319     492.518    -342.024
  H      190.063     487.283    -347.041
  H      191.709     486.326    -348.567
  H      190.493     487.137    -349.513
  P      187.609     488.974    -347.191
  C      187.490     486.893    -345.646
  O      187.538     487.380    -346.980
  O      187.658     489.137    -348.793
  O      186.497     489.760    -346.591
  H      186.783     489.468    -349.109
  H      187.008     485.931    -345.651
  H      186.962     487.567    -344.977
  H      188.525     486.757    -345.292
  H      189.993     488.674    -353.034
  H      191.684     489.048    -353.261
  H      190.821     489.703    -351.890

 3  4  5  6  7  8  9  10  11  12  23  26  30  31 0
 6-311+G(2d,p)
 ****
 33  35  36  37  38 0
 6-311+G(2d,p)
 ****
 1  2  13  14  15  16  17  18  19  20  21  22  24  25 0
 3-21G
 ****
 27  28  29  32  34  39  40  41  42  43  44  45  46  47  48  49 0
 3-21G
 ****


