%nproc=1
%NoSave
%Mem=1900MB
#P OB98/GEN NMR

erre ene a

0 1
  C      470.788    -885.464    -304.325
  O      470.355    -885.843    -303.030
  H      470.342    -884.496    -304.568
  H      470.462    -886.194    -305.067
  H      471.876    -885.367    -304.349
  P      470.866    -887.241    -302.439
  C      471.591    -888.100    -300.111
  O      471.198    -886.975    -300.892
  C      471.723    -887.695    -298.647
  O      472.767    -886.714    -298.486
  C      470.456    -887.067    -298.056
  O      469.530    -888.078    -297.687
  C      471.043    -886.328    -296.871
  O      471.334    -887.259    -295.810
  C      472.347    -885.772    -297.463
  N      472.389    -880.764    -296.633
  C      472.495    -881.820    -295.737
  N      472.564    -881.483    -294.434
  N      472.491    -883.074    -296.095
  C      472.332    -883.262    -297.424
  C      472.206    -882.298    -298.408
  C      472.260    -880.912    -298.013
  O      472.196    -879.949    -298.779
  N      472.002    -882.867    -299.638
  C      472.037    -884.163    -299.404
  N      472.225    -884.452    -298.075
  O      471.988    -887.906    -303.186
  O      469.555    -888.152    -302.387
  H      470.475    -887.545    -295.453
  H      469.459    -888.678    -303.207
  H      472.375    -879.813    -296.303
  H      471.944    -884.936    -300.171
  H      473.152    -885.708    -296.723
  H      470.369    -885.571    -296.465
  H      472.287    -880.570    -294.096
  H      470.006    -886.339    -298.738
  H      472.594    -882.234    -293.762
  H      472.025    -888.583    -298.077
  H      472.554    -888.452    -300.495
  H      470.855    -888.898    -300.205
  P      467.969    -887.753    -297.514
  C      465.802    -888.917    -298.305
  O      467.206    -889.027    -298.132
  O      467.544    -886.438    -298.079
  O      467.696    -887.911    -295.954
  H      467.845    -887.081    -295.435
  H      465.422    -889.826    -298.721
  H      465.587    -888.105    -298.967
  H      465.339    -888.737    -297.357

 6  7  8  9  10  11  12  13  14  15  26  29  33  34 0
 6-311+G(2d,p)
 ****
 36  38  39  40  41 0
 6-311+G(2d,p)
 ****
 1  2  3  4  5  16  17  18  19  20  21  22  23  24  25 0
 3-21G
 ****
 27  28  30  31  32  35  37  42  43  44  45  46  47 0
 3-21G
 ****
 48  49 0
 3-21G
 ****


