%nproc=1
%NoSave
%Mem=1900MB
#P OB98/GEN NMR

erre ene a

0 1
  C      -93.380      69.842    -320.119
  O      -92.441      69.665    -319.069
  P      -92.541      68.308    -318.214
  C      -90.940      67.034    -316.603
  O      -91.087      68.041    -317.598
  C      -89.461      66.711    -316.396
  O      -88.905      66.141    -317.598
  C      -88.586      67.916    -316.076
  O      -88.759      68.335    -314.731
  C      -87.207      67.351    -316.396
  O      -86.749      66.527    -315.313
  C      -87.496      66.487    -317.635
  N      -83.786      68.453    -320.568
  C      -83.757      67.867    -319.353
  N      -84.789      67.388    -318.625
  C      -85.948      67.556    -319.282
  C      -86.136      68.157    -320.516
  C      -84.985      68.617    -321.174
  N      -85.021      69.219    -322.413
  N      -87.471      68.169    -320.857
  C      -88.080      67.577    -319.850
  N      -87.201      67.176    -318.879
  O      -92.681      67.181    -319.336
  O      -93.669      68.266    -317.231
  H      -86.731      67.084    -314.507
  H      -93.249      66.448    -319.026
  H      -82.774      67.765    -318.900
  H      -89.149      67.413    -319.780
  H      -86.925      65.547    -317.637
  H      -86.451      68.129    -316.560
  H      -88.817      68.744    -316.754
  H      -89.387      65.961    -315.595
  H      -91.459      66.125    -316.924
  H      -84.172      69.653    -322.745
  H      -85.925      69.469    -322.797
  H      -91.398      67.383    -315.673
  P      -88.033      69.692    -314.283
  C      -88.724      71.594    -312.699
  O      -89.164      70.471    -313.444
  O      -87.997      70.508    -315.660
  O      -86.723      69.510    -313.599
  H      -88.864      70.510    -316.103
  H      -89.594      72.057    -312.221
  H      -88.249      72.324    -313.359
  H      -88.020      71.279    -311.922
  H      -93.202      70.780    -320.602
  H      -94.371      69.831    -319.717
  H      -93.274      69.049    -320.829

 3  4  5  6  7  8  9  10  11  12  22  25  29  30  31  32 0
 6-311+G(2d,p)
 ****
 33  36  37 0
 6-311+G(2d,p)
 ****
 1  2  13  14  15  16  17  18  19  20  21  23  24  26 0
 3-21G
 ****
 27  28  34  35  38  39  40  41  42  43  44  45  46  47  48 0
 3-21G
 ****


