%nproc=1
%NoSave
%Mem=1900MB
#P OB98/GEN NMR

erre ene a

0 1
  C       82.600     129.532    -306.756
  O       81.547     130.192    -307.429
  H       82.216     129.134    -305.814
  H       83.410     130.231    -306.534
  H       82.978     128.700    -307.356
  P       81.854     130.871    -308.849
  C       80.354     131.555    -310.849
  O       80.409     131.007    -309.540
  C       78.929     131.491    -311.389
  O       78.563     130.140    -311.746
  C       77.850     131.930    -310.404
  O       77.800     133.331    -310.197
  C       76.617     131.409    -311.120
  O       76.298     132.271    -312.226
  C       77.118     130.030    -311.608
  N       76.772     128.947    -310.687
  C       75.525     128.338    -310.877
  O       74.770     128.719    -311.771
  N       75.143     127.331    -310.024
  C       75.927     126.980    -309.053
  N       75.495     125.980    -308.233
  C       77.238     127.605    -308.804
  C       77.597     128.569    -309.651
  O       82.903     130.205    -309.682
  O       82.188     132.396    -308.501
  H       75.378     132.079    -312.480
  H       82.397     132.861    -309.349
  H       77.842     127.296    -307.964
  H       78.545     129.081    -309.529
  H       76.715     129.794    -312.600
  H       75.733     131.366    -310.480
  H       77.949     131.397    -309.450
  H       78.898     132.088    -312.310
  H       74.591     125.571    -308.427
  H       81.041     130.987    -311.484
  H       76.007     125.695    -307.409
  H       80.669     132.602    -310.829
  P       77.060     133.843    -308.864
  C       76.520     136.194    -307.860
  O       77.097     135.444    -308.916
  O       78.095     133.464    -307.706
  O       75.699     133.266    -308.632
  H       77.837     132.632    -307.270
  H       76.636     137.239    -308.060
  H       77.010     135.951    -306.940
  H       75.479     135.959    -307.783

 6  7  8  9  10  11  12  13  14  15  16  26  30  31  32  33  35 0
 6-311+G(2d,p)
 ****
 37  38 0
 6-311+G(2d,p)
 ****
 1  2  3  4  5  17  18  19  20  21  22  23  24  25 0
 3-21G
 ****
 27  28  29  34  36  39  40  41  42  43  44  45  46 0
 3-21G
 ****


