%nproc=1
%NoSave
%Mem=1900MB
#P OB98/GEN NMR

erre ene a

0 1
  C     -113.063       6.932    -113.060
  O     -113.154       8.303    -113.392
  H     -112.842       6.366    -113.967
  H     -114.015       6.586    -112.652
  H     -112.263       6.767    -112.334
  P     -113.386       9.329    -112.180
  C     -114.119      11.808    -111.985
  O     -113.949      10.684    -112.836
  C     -114.526      13.039    -112.792
  O     -113.416      13.426    -113.656
  C     -115.755      12.828    -113.690
  O     -116.494      14.055    -113.725
  C     -115.137      12.609    -115.062
  O     -116.050      12.875    -116.123
  C     -113.956      13.575    -114.983
  N     -112.309      14.993    -119.520
  C     -113.318      15.510    -118.730
  N     -113.996      16.568    -119.223
  N     -113.636      15.030    -117.558
  C     -112.854      13.992    -117.174
  C     -111.831      13.386    -117.863
  C     -111.506      13.911    -119.173
  O     -110.637      13.484    -119.926
  N     -111.302      12.343    -117.144
  C     -112.003      12.321    -116.025
  N     -112.956      13.302    -115.997
  O     -111.892       9.709    -111.753
  O     -114.178       8.796    -111.034
  H     -116.745      12.185    -116.102
  H     -111.589       9.129    -111.029
  H     -112.114      15.392    -120.421
  H     -111.865      11.621    -115.213
  H     -114.262      14.620    -115.114
  H     -114.790      11.573    -115.160
  H     -113.776      17.020    -120.096
  H     -116.408      12.008    -113.377
  H     -114.710      16.988    -118.640
  H     -114.689      13.873    -112.098
  H     -113.172      12.012    -111.473
  H     -114.885      11.582    -111.237
  P     -117.762      14.196    -112.758
  C     -119.007      16.216    -111.694
  O     -118.239      15.726    -112.782
  O     -117.115      14.051    -111.299
  O     -118.830      13.179    -112.991
  H     -117.775      13.691    -110.679
  H     -119.244      17.246    -111.860
  H     -118.444      16.121    -110.789
  H     -119.912      15.650    -111.613

 6  7  8  9  10  11  12  13  14  15  26  29  33  34 0
 6-311+G(2d,p)
 ****
 36  38  39  40  41 0
 6-311+G(2d,p)
 ****
 1  2  3  4  5  16  17  18  19  20  21  22  23  24  25 0
 3-21G
 ****
 27  28  30  31  32  35  37  42  43  44  45  46  47 0
 3-21G
 ****
 48  49 0
 3-21G
 ****


