%nproc=1
%NoSave
%Mem=1900MB
#P OB98/GEN NMR

erre ene a

0 1
  C     -335.602     398.233    -513.374
  O     -335.245     397.847    -514.688
  P     -335.932     398.653    -515.905
  C     -338.268     399.751    -516.172
  O     -337.503     398.712    -515.590
  C     -339.747     399.599    -515.800
  O     -339.930     399.832    -514.393
  C     -340.683     400.563    -516.506
  O     -340.910     400.175    -517.853
  C     -341.916     400.456    -515.598
  O     -342.652     399.269    -515.909
  C     -341.275     400.348    -514.205
  N     -343.574     403.401    -510.793
  C     -343.910     402.202    -511.303
  N     -343.271     401.459    -512.231
  C     -342.143     402.073    -512.622
  C     -341.670     403.315    -512.207
  C     -342.440     403.990    -511.251
  N     -342.081     405.223    -510.724
  N     -340.495     403.631    -512.853
  C     -340.256     402.605    -513.635
  N     -341.205     401.627    -513.527
  O     -335.839     397.617    -517.116
  O     -335.286     399.965    -516.228
  H     -343.485     399.294    -515.388
  H     -335.709     398.082    -517.969
  H     -344.841     401.766    -510.911
  H     -339.396     402.506    -514.289
  H     -341.812     399.651    -513.560
  H     -342.597     401.307    -515.714
  H     -340.282     401.583    -516.481
  H     -340.044     398.551    -516.022
  H     -338.174     399.718    -517.264
  H     -342.757     405.700    -510.156
  H     -341.318     405.713    -511.169
  H     -337.886     400.723    -515.829
  P     -341.860     401.118    -518.740
  C     -343.971     402.419    -518.042
  O     -343.204     401.232    -517.878
  O     -342.275     400.135    -519.935
  O     -341.229     402.413    -519.161
  H     -342.586     399.271    -519.593
  H     -344.873     402.339    -517.445
  H     -344.239     402.549    -519.097
  H     -343.389     403.284    -517.709
  H     -335.078     397.622    -512.668
  H     -336.656     398.109    -513.240
  H     -335.341     399.259    -513.220

 3  4  5  6  7  8  9  10  11  12  22  25  29  30  31  32 0
 6-311+G(2d,p)
 ****
 33  36  37 0
 6-311+G(2d,p)
 ****
 1  2  13  14  15  16  17  18  19  20  21  23  24  26 0
 3-21G
 ****
 27  28  34  35  38  39  40  41  42  43  44  45  46  47  48 0
 3-21G
 ****


