%nproc=1
%NoSave
%Mem=1900MB
#P OB98/GEN NMR

erre ene a

0 1
  C       59.132     267.455     222.893
  O       58.891     267.062     224.224
  P       57.853     267.875     225.140
  C       55.891     266.212     225.268
  O       56.386     267.411     224.677
  C       54.979     265.486     224.285
  O       55.736     264.923     223.182
  C       54.247     264.290     224.882
  O       53.289     264.550     225.881
  C       53.768     263.580     223.629
  O       52.580     264.177     223.111
  C       54.957     263.815     222.663
  N       55.770     262.614     222.488
  C       55.264     261.662     221.612
  O       54.205     261.790     221.003
  N       56.012     260.520     221.477
  C       57.161     260.228     222.148
  O       57.755     259.166     222.011
  C       57.635     261.266     223.076
  C       56.930     262.397     223.203
  O       58.055     269.352     225.171
  O       57.996     267.169     226.572
  H       51.843     263.927     223.703
  H       57.783     266.218     226.580
  H       55.657     259.811     220.853
  H       58.553     261.071     223.618
  H       57.261     263.177     223.882
  H       54.592     264.129     221.676
  H       53.543     262.523     223.818
  H       54.992     263.638     225.353
  H       54.282     266.212     223.855
  H       55.319     266.468     226.164
  H       56.734     265.580     225.572
  P       53.562     264.334     227.447
  C       52.312     266.500     228.123
  O       53.512     265.764     228.167
  O       54.679     263.412     227.809
  O       52.174     263.677     227.924
  H       52.348     263.072     228.665
  H       52.472     267.461     228.624
  H       51.514     265.965     228.644
  H       52.018     266.693     227.087
  H       59.849     266.795     222.450
  H       59.512     268.455     222.880
  H       58.218     267.413     222.338

 3  4  5  6  7  8  9  10  11  12  13  23  28  29  30  31  32 0
 6-311+G(2d,p)
 ****
 33  34 0
 6-311+G(2d,p)
 ****
 1  2  14  15  16  17  18  19  20  21  22  24  25  26  27 0
 3-21G
 ****
 35  36  37  38  39  40  41  42  43  44  45 0
 3-21G
 ****


