%nproc=1
%NoSave
%Mem=1900MB
#P OB98/GEN NMR

erre ene a

0 1
  C       42.149    -158.633    -186.842
  O       41.267    -157.803    -187.571
  H       41.706    -158.833    -185.863
  H       43.109    -158.133    -186.695
  H       42.296    -159.585    -187.358
  P       41.689    -157.356    -189.054
  C       42.050    -154.959    -188.136
  O       42.618    -156.063    -188.825
  C       43.059    -154.378    -187.149
  O       43.600    -155.402    -186.286
  C       44.284    -153.734    -187.789
  O       44.022    -152.480    -188.395
  C       45.182    -153.612    -186.571
  O       44.736    -152.518    -185.750
  C       44.928    -154.973    -185.880
  N       45.926    -155.981    -186.238
  C       47.062    -156.054    -185.423
  O       47.199    -155.295    -184.466
  N       48.040    -156.971    -185.735
  C       47.905    -157.729    -186.779
  N       48.907    -158.613    -187.043
  C       46.734    -157.669    -187.675
  C       45.794    -156.786    -187.348
  O       40.568    -157.179    -190.028
  O       42.766    -158.449    -189.512
  H       43.763    -152.577    -185.702
  H       43.051    -158.224    -190.431
  H       46.685    -158.302    -188.549
  H       44.905    -156.678    -187.963
  H       44.914    -154.860    -184.789
  H       46.227    -153.424    -186.823
  H       44.758    -154.420    -188.501
  H       42.519    -153.667    -186.508
  H       49.697    -158.628    -186.411
  H       41.150    -155.307    -187.617
  H       48.922    -159.186    -187.876
  H       41.771    -154.176    -188.845
  P       44.202    -152.390    -189.990
  C       45.933    -150.485    -189.554
  O       45.619    -151.684    -190.242
  O       43.132    -151.285    -190.414
  O       44.021    -153.683    -190.725
  H       42.315    -151.705    -190.747
  H       46.910    -150.155    -189.840
  H       45.911    -150.663    -188.499
  H       45.215    -149.732    -189.804

 6  7  8  9  10  11  12  13  14  15  16  26  30  31  32  33  35 0
 6-311+G(2d,p)
 ****
 37  38 0
 6-311+G(2d,p)
 ****
 1  2  3  4  5  17  18  19  20  21  22  23  24  25 0
 3-21G
 ****
 27  28  29  34  36  39  40  41  42  43  44  45  46 0
 3-21G
 ****


