%nproc=1
%NoSave
%Mem=1900MB
#P OB98/GEN NMR

erre ene a

0 1
  C        8.567      54.854     130.870
  O        9.390      54.573     129.738
  P       10.103      55.792     128.980
  C        9.543      55.540     126.479
  O       10.501      55.303     127.506
  C        9.843      54.680     125.250
  O        9.082      53.457     125.257
  C        9.495      55.365     123.940
  O       10.445      56.367     123.621
  C        9.455      54.181     122.986
  O       10.776      53.831     122.543
  C        8.884      53.060     123.883
  N        7.486      52.762     123.610
  C        7.018      51.531     124.082
  O        7.782      50.754     124.655
  N        5.699      51.208     123.879
  C        4.922      52.036     123.253
  N        3.625      51.665     123.083
  C        5.380      53.337     122.729
  C        6.662      53.629     122.933
  O       11.190      56.478     129.740
  O        8.880      56.794     128.694
  H       11.170      54.655     122.194
  H        9.219      57.710     128.687
  H        4.691      53.995     122.219
  H        7.082      54.563     122.579
  H        9.457      52.135     123.743
  H        8.862      54.399     122.092
  H        8.496      55.814     124.012
  H       10.912      54.426     125.265
  H        3.338      50.763     123.442
  H        9.557      56.598     126.206
  H        2.931      52.261     122.654
  H        8.544      55.329     126.873
  P        9.906      57.858     123.392
  C       10.960      58.405     121.089
  O       10.975      58.630     122.484
  O       10.091      58.533     124.834
  O        8.487      57.948     122.933
  H        9.377      59.177     124.988
  H       11.510      59.215     120.598
  H        9.940      58.387     120.697
  H       11.456      57.458     120.862
  H        8.169      53.939     131.257
  H        7.763      55.496     130.576
  H        9.152      55.337     131.625

 3  4  5  6  7  8  9  10  11  12  13  23  27  28  29  30  32 0
 6-311+G(2d,p)
 ****
 34  35 0
 6-311+G(2d,p)
 ****
 1  2  14  15  16  17  18  19  20  21  22  24  25  26 0
 3-21G
 ****
 31  33  36  37  38  39  40  41  42  43  44  45  46 0
 3-21G
 ****


