%nproc=1
%NoSave
%Mem=1900MB
#P OB98/GEN NMR

erre ene a

0 1
  C     -589.103      10.362     -91.995
  O     -589.042      11.531     -92.781
  P     -589.528      11.508     -94.313
  C     -587.066      11.134     -94.966
  O     -588.243      11.897     -95.198
  C     -585.887      11.749     -95.718
  O     -586.143      11.794     -97.144
  C     -585.600      13.196     -95.341
  O     -585.142      13.450     -94.032
  C     -584.691      13.621     -96.485
  O     -583.345      13.190     -96.269
  C     -585.316      12.861     -97.679
  N     -586.077      13.748     -98.556
  C     -585.486      14.059     -99.770
  O     -584.383      13.633    -100.119
  N     -586.184      14.921    -100.575
  C     -587.371      15.521    -100.267
  O     -587.922      16.316    -101.018
  C     -587.942      15.162     -98.966
  C     -587.287      14.309     -98.175
  O     -590.748      12.313     -94.606
  O     -589.690       9.944     -94.626
  H     -583.379      12.251     -96.000
  H     -588.873       9.421     -94.519
  H     -585.758      15.171    -101.458
  H     -588.892      15.610     -98.697
  H     -587.690      14.027     -97.203
  H     -584.534      12.378     -98.279
  H     -584.666      14.711     -96.600
  H     -586.528      13.768     -95.444
  H     -585.013      11.110     -95.565
  H     -587.224      10.115     -95.328
  H     -586.868      11.082     -93.889
  P     -586.112      13.899     -92.837
  C     -584.625      15.516     -91.454
  O     -585.210      14.233     -91.553
  O     -587.338      13.078     -92.616
  O     -586.554      15.368     -93.317
  H     -587.461      15.551     -92.994
  H     -584.013      15.549     -90.550
  H     -585.398      16.281     -91.385
  H     -583.977      15.707     -92.316
  H     -588.739      10.574     -91.011
  H     -588.499       9.600     -92.442
  H     -590.117      10.025     -91.935

 3  4  5  6  7  8  9  10  11  12  13  23  28  29  30  31  32 0
 6-311+G(2d,p)
 ****
 33  34 0
 6-311+G(2d,p)
 ****
 1  2  14  15  16  17  18  19  20  21  22  24  25  26  27 0
 3-21G
 ****
 35  36  37  38  39  40  41  42  43  44  45 0
 3-21G
 ****


