%nproc=1
%NoSave
%Mem=1900MB
#P OB98/GEN NMR

erre ene a

0 1
  C      454.930      45.673     345.453
  O      456.030      44.846     345.861
  P      457.448      44.832     345.115
  C      459.171      46.758     344.888
  O      458.368      45.980     345.773
  C      460.559      46.999     345.487
  O      460.441      47.575     346.813
  C      461.404      45.748     345.702
  O      461.910      45.223     344.486
  C      462.472      46.270     346.657
  O      463.541      46.913     345.946
  C      461.694      47.314     347.485
  N      461.474      46.898     348.861
  C      462.561      46.984     349.728
  O      463.672      47.321     349.305
  N      462.378      46.668     351.055
  C      461.231      46.209     351.449
  N      461.099      45.930     352.779
  C      460.095      45.972     350.543
  C      460.281      46.335     349.273
  O      457.353      44.920     343.627
  O      458.155      43.470     345.564
  H      458.790      43.185     344.884
  H      464.005      46.218     345.443
  H      459.170      45.548     350.907
  H      459.490      46.209     348.539
  H      462.226      48.271     347.485
  H      462.920      45.466     347.255
  H      460.799      44.987     346.214
  H      461.091      47.712     344.842
  H      461.895      46.116     353.379
  H      458.679      47.725     344.731
  H      460.243      45.590     353.198
  H      459.244      46.244     343.923
  P      461.382      43.777     344.039
  C      459.578      42.901     342.390
  O      460.060      43.991     343.159
  O      460.834      43.141     345.402
  O      462.423      42.904     343.416
  H      461.055      42.193     345.437
  H      458.496      43.022     342.264
  H      459.774      41.948     342.880
  H      460.050      42.914     341.406
  H      454.097      45.505     346.104
  H      454.653      45.428     344.449
  H      455.220      46.702     345.502

 3  4  5  6  7  8  9  10  11  12  13  24  27  28  29  30  32 0
 6-311+G(2d,p)
 ****
 34  35 0
 6-311+G(2d,p)
 ****
 1  2  14  15  16  17  18  19  20  21  22  23  25  26 0
 3-21G
 ****
 31  33  36  37  38  39  40  41  42  43  44  45  46 0
 3-21G
 ****


