%nproc=1
%NoSave
%Mem=1900MB
#P OB98/GEN NMR

erre ene a

0 1
  C      -58.795     -33.993      39.303
  O      -58.027     -32.817      39.450
  H      -58.121     -34.825      39.083
  H      -59.498     -33.886      38.474
  H      -59.339     -34.219      40.225
  P      -58.758     -31.468      39.909
  C      -58.959     -30.646      37.475
  O      -59.653     -30.979      38.672
  C      -59.613     -29.434      36.816
  O      -60.957     -29.757      36.392
  C      -59.747     -28.227      37.739
  O      -58.502     -27.579      37.906
  C      -60.802     -27.424      36.995
  O      -60.224     -26.707      35.893
  C      -61.739     -28.545      36.481
  N      -62.915     -28.737      37.333
  C      -64.076     -28.086      36.930
  O      -64.141     -27.382      35.924
  N      -65.161     -28.238      37.753
  C      -65.163     -28.884      38.956
  O      -66.087     -28.809      39.761
  C      -63.932     -29.613      39.293
  C      -62.875     -29.495      38.486
  O      -57.874     -30.421      40.503
  O      -59.854     -31.975      40.963
  H      -59.529     -31.813      41.870
  H      -60.934     -26.145      35.526
  H      -65.994     -27.730      37.496
  H      -63.916     -30.192      40.207
  H      -61.948     -30.000      38.729
  H      -62.087     -28.316      35.465
  H      -61.292     -26.687      37.634
  H      -60.157     -28.538      38.708
  H      -59.031     -29.176      35.922
  H      -59.011     -31.502      36.793
  H      -57.910     -30.442      37.712
  P      -58.078     -26.947      39.314
  C      -59.397     -24.765      39.053
  O      -59.254     -25.970      39.793
  O      -56.715     -26.341      39.352
  O      -58.186     -28.170      40.343
  H      -57.343     -28.257      40.827
  H      -60.206     -24.193      39.456
  H      -59.600     -24.998      38.029
  H      -58.492     -24.198      39.117

 6  7  8  9  10  11  12  13  14  15  16  27  31  32  33  34  35 0
 6-311+G(2d,p)
 ****
 36  37 0
 6-311+G(2d,p)
 ****
 1  2  3  4  5  17  18  19  20  21  22  23  24  25 0
 3-21G
 ****
 26  28  29  30  38  39  40  41  42  43  44  45 0
 3-21G
 ****


