%nproc=1
%NoSave
%Mem=1900MB
#P OB98/GEN NMR

erre ene a

0 1
  C     -896.370    -936.459    -808.032
  O     -896.140    -937.106    -806.786
  P     -895.580    -938.598    -806.784
  C     -895.420    -938.225    -804.214
  O     -895.570    -939.159    -805.278
  C     -895.410    -938.890    -802.857
  O     -896.750    -939.275    -802.477
  C     -894.580    -940.183    -802.790
  O     -893.180    -940.085    -802.449
  C     -895.250    -940.923    -801.624
  O     -894.710    -940.441    -800.357
  C     -896.730    -940.522    -801.722
  N     -898.280    -945.387    -801.537
  C     -897.480    -944.664    -800.737
  N     -897.100    -943.375    -800.851
  C     -897.700    -942.836    -801.922
  C     -898.530    -943.443    -802.831
  C     -898.830    -944.772    -802.623
  N     -899.650    -945.527    -803.434
  N     -898.920    -942.529    -803.847
  C     -898.300    -941.420    -803.549
  N     -897.540    -941.543    -802.388
  O     -894.300    -938.835    -807.537
  O     -896.800    -939.414    -807.449
  H     -895.280    -940.837    -799.658
  H     -896.410    -940.124    -808.022
  H     -897.060    -945.184    -799.874
  H     -898.350    -940.503    -804.134
  H     -897.190    -940.310    -800.766
  H     -895.070    -941.988    -801.648
  H     -894.710    -940.775    -803.700
  H     -895.040    -938.180    -802.092
  H     -896.250    -937.516    -804.267
  H     -899.770    -946.516    -803.222
  H     -900.000    -945.087    -804.289
  H     -894.530    -937.639    -804.439
  P     -892.060    -940.245    -803.599
  C     -890.480    -938.360    -802.593
  O     -890.700    -939.749    -802.877
  O     -892.340    -939.569    -804.893
  O     -891.850    -941.822    -803.668
  H     -891.480    -942.222    -802.893
  H     -889.610    -938.282    -801.944
  H     -891.350    -937.927    -802.105
  H     -890.270    -937.830    -803.536
  H     -896.743    -935.471    -807.858
  H     -897.088    -937.017    -808.596
  H     -895.452    -936.403    -808.579

 3  4  5  6  7  8  9  10  11  12  22  25  29  30  31  32 0
 6-311+G(2d,p)
 ****
 33  36  37 0
 6-311+G(2d,p)
 ****
 1  2  13  14  15  16  17  18  19  20  21  23  24  26 0
 3-21G
 ****
 27  28  34  35  38  39  40  41  42  43  44  45  46  47  48 0
 3-21G
 ****


