%nproc=1
%NoSave
%Mem=1900MB
#P OB98/GEN NMR

erre ene a

0 1
  C      -74.316      70.039      -1.719
  O      -74.943      70.367      -0.491
  P      -76.232      69.499      -0.077
  C      -78.709      69.427      -0.901
  O      -77.465      70.108      -0.898
  C      -79.851      70.440      -1.016
  O      -79.889      71.287       0.149
  C      -79.741      71.372      -2.215
  O      -80.223      70.734      -3.385
  C      -80.592      72.552      -1.763
  O      -81.993      72.283      -1.965
  C      -80.258      72.631      -0.265
  N      -79.203      77.293       1.382
  C      -80.411      76.734       1.010
  N      -81.502      77.522       1.139
  N      -80.540      75.514       0.556
  C      -79.363      74.850       0.468
  C      -78.103      75.298       0.790
  C      -77.983      76.629       1.340
  O      -76.952      77.136       1.775
  N      -77.151      74.345       0.544
  C      -77.840      73.311       0.103
  N      -79.188      73.558       0.058
  O      -76.503      69.953       1.431
  O      -76.072      68.018      -0.214
  H      -82.161      72.157      -2.916
  H      -76.133      69.303       2.059
  H      -79.168      78.231       1.741
  H      -77.414      72.358      -0.173
  H      -81.126      72.926       0.336
  H      -80.364      73.464      -2.323
  H      -81.476      78.476       1.457
  H      -78.703      71.697      -2.353
  H      -82.395      77.129       0.867
  H      -80.793      69.879      -1.051
  H      -78.816      68.869       0.032
  H      -78.732      68.722      -1.740
  P      -79.386      70.936      -4.738
  C      -78.933      72.924      -6.347
  O      -79.698      72.413      -5.271
  O      -80.136      69.983      -5.782
  O      -77.938      70.589      -4.628
  H      -79.484      69.586      -6.391
  H      -79.548      73.626      -6.912
  H      -78.594      72.129      -7.018
  H      -78.063      73.452      -5.950
  H      -73.478      70.686      -1.875
  H      -75.015      70.161      -2.520
  H      -73.982      69.023      -1.689

 3  4  5  6  7  8  9  10  11  12  23  26  30  31 0
 6-311+G(2d,p)
 ****
 33  35  36  37  38 0
 6-311+G(2d,p)
 ****
 1  2  13  14  15  16  17  18  19  20  21  22  24  25 0
 3-21G
 ****
 27  28  29  32  34  39  40  41  42  43  44  45  46  47  48  49 0
 3-21G
 ****


