%nproc=1
%NoSave
%Mem=1900MB
#P OB98/GEN NMR

erre ene a

0 1
  C     -289.166     440.063     100.904
  O     -289.930     440.247      99.723
  P     -289.466     441.288      98.591
  C     -291.951     441.227      97.890
  O     -290.809     442.035      98.139
  C     -293.218     441.976      98.293
  O     -293.275     442.083      99.730
  C     -293.300     443.404      97.771
  O     -293.652     443.424      96.393
  C     -294.336     443.999      98.718
  O     -295.658     443.623      98.315
  C     -293.976     443.310     100.050
  N     -293.178     444.154     100.931
  C     -293.714     444.419     102.195
  O     -294.799     443.946     102.535
  N     -292.987     445.189     103.069
  C     -291.839     445.674     102.707
  N     -291.133     446.375     103.639
  C     -291.263     445.466     101.365
  C     -291.975     444.702     100.542
  O     -288.673     440.691      97.475
  O     -288.688     442.432      99.393
  H     -296.269     443.954      98.998
  H     -287.726     442.247      99.509
  H     -290.310     445.903     101.104
  H     -291.611     444.481      99.544
  H     -294.889     443.007     100.580
  H     -294.301     445.094      98.771
  H     -292.342     443.915      97.903
  H     -294.085     441.395      97.957
  H     -291.479     446.342     104.588
  H     -291.871     440.312      98.487
  H     -290.138     446.528     103.538
  H     -291.977     440.954      96.829
  P     -293.564     444.828      95.629
  C     -295.134     443.823      93.824
  O     -294.872     444.906      94.699
  O     -292.356     444.609      94.597
  O     -293.340     446.006      96.520
  H     -291.544     445.032      94.937
  H     -296.158     443.918      93.453
  H     -295.035     442.867      94.350
  H     -294.448     443.852      92.973
  H     -289.640     439.333     101.526
  H     -289.097     440.991     101.433
  H     -288.184     439.727     100.645

 3  4  5  6  7  8  9  10  11  12  13  23  27  28  29  30  32 0
 6-311+G(2d,p)
 ****
 34  35 0
 6-311+G(2d,p)
 ****
 1  2  14  15  16  17  18  19  20  21  22  24  25  26 0
 3-21G
 ****
 31  33  36  37  38  39  40  41  42  43  44  45  46 0
 3-21G
 ****


