%nproc=1
%NoSave
%Mem=1900MB
#P OB98/GEN NMR

erre ene a

0 1
  C       57.438     -11.760    -638.550
  O       58.718     -12.350    -638.335
  P       59.752     -11.476    -637.466
  C       61.141      -9.330    -637.901
  O       60.492     -10.457    -638.466
  C       61.806      -8.479    -638.986
  O       62.899      -9.213    -639.625
  C       60.846      -8.039    -640.110
  O       61.260      -6.734    -640.531
  C       61.135      -9.067    -641.192
  O       60.645      -8.685    -642.474
  C       62.652      -9.177    -641.051
  N       66.994     -11.524    -642.350
  C       66.753     -10.352    -641.721
  N       65.564      -9.793    -641.424
  C       64.554     -10.580    -641.826
  C       64.639     -11.800    -642.483
  C       65.932     -12.279    -642.750
  N       66.193     -13.459    -643.410
  N       63.375     -12.299    -642.759
  C       62.541     -11.354    -642.337
  N       63.207     -10.343    -641.698
  O       60.895     -12.529    -637.071
  O       59.132     -10.833    -636.268
  H       59.666      -8.663    -642.457
  H       60.758     -12.860    -636.163
  H       67.631      -9.780    -641.439
  H       61.477     -11.355    -642.475
  H       63.168      -8.302    -641.459
  H       60.649     -10.013    -640.929
  H       59.791      -8.003    -639.797
  H       62.249      -7.589    -638.510
  H       61.903      -9.652    -637.179
  H       67.152     -13.713    -643.555
  H       65.436     -14.039    -643.722
  H       60.405      -8.740    -637.334
  P       60.338      -5.474    -640.150
  C       58.189      -4.618    -641.268
  O       58.944      -5.762    -640.906
  O       60.973      -4.348    -641.092
  O       60.279      -5.106    -638.706
  H       61.071      -4.658    -642.004
  H       57.321      -4.939    -641.844
  H       58.790      -3.944    -641.891
  H       57.842      -4.107    -640.363
  H       56.834     -12.422    -639.135
  H       57.556     -10.832    -639.069
  H       56.963     -11.584    -637.607

 3  4  5  6  7  8  9  10  11  12  22  25  29  30  31  32 0
 6-311+G(2d,p)
 ****
 33  36  37 0
 6-311+G(2d,p)
 ****
 1  2  13  14  15  16  17  18  19  20  21  23  24  26 0
 3-21G
 ****
 27  28  34  35  38  39  40  41  42  43  44  45  46  47  48 0
 3-21G
 ****


