%nproc=1
%NoSave
%Mem=1900MB
#P OB98/GEN NMR

erre ene a

0 1
  C      -40.626     185.533      28.835
  O      -40.630     184.295      29.545
  P      -41.862     183.288      29.347
  C      -40.442     181.164      29.055
  O      -41.421     181.826      29.845
  C      -40.046     179.800      29.638
  O      -39.365     179.958      30.909
  C      -41.228     178.845      29.869
  O      -40.758     177.523      29.586
  C      -41.495     179.014      31.350
  O      -42.255     177.947      31.893
  C      -40.062     179.145      31.876
  N      -40.006     179.725      33.208
  C      -39.234     179.061      34.163
  O      -38.721     177.976      33.893
  N      -39.095     179.631      35.405
  C      -39.786     180.685      35.709
  N      -39.604     181.231      36.942
  C      -40.750     181.309      34.782
  C      -40.789     180.798      33.555
  O      -42.510     183.324      28.003
  O      -42.888     183.752      30.491
  H      -41.901     177.098      31.552
  H      -43.800     183.635      30.160
  H      -41.365     182.137      35.106
  H      -41.458     181.189      32.801
  H      -39.563     178.168      31.900
  H      -42.050     179.944      31.520
  H      -42.092     179.061      29.233
  H      -39.332     179.335      28.942
  H      -38.959     180.778      37.575
  H      -39.553     181.796      28.985
  H      -40.069     182.083      37.233
  H      -40.821     181.062      28.032
  P      -41.694     176.527      28.741
  C      -39.729     175.942      27.145
  O      -40.748     175.470      27.997
  O      -42.156     177.470      27.523
  O      -42.891     175.989      29.453
  H      -43.003     177.141      27.173
  H      -39.023     175.130      26.956
  H      -39.180     176.773      27.600
  H      -40.160     176.262      26.191
  H      -39.740     186.081      29.079
  H      -41.487     186.105      29.111
  H      -40.648     185.341      27.783

 3  4  5  6  7  8  9  10  11  12  13  23  27  28  29  30  32 0
 6-311+G(2d,p)
 ****
 34  35 0
 6-311+G(2d,p)
 ****
 1  2  14  15  16  17  18  19  20  21  22  24  25  26 0
 3-21G
 ****
 31  33  36  37  38  39  40  41  42  43  44  45  46 0
 3-21G
 ****


