%nproc=1
%NoSave
%Mem=1900MB
#P OB98/GEN NMR

erre ene a

0 1
  C      127.664    -195.697    -526.954
  O      128.137    -196.746    -526.128
  P      127.587    -196.803    -524.617
  C      129.946    -197.343    -523.653
  O      128.837    -196.443    -523.685
  C      131.266    -196.566    -523.658
  O      131.345    -195.745    -524.841
  C      131.428    -195.618    -522.492
  O      131.790    -196.325    -521.318
  C      132.516    -194.686    -523.008
  O      133.825    -195.225    -522.743
  C      132.230    -194.650    -524.526
  N      131.685    -193.379    -524.969
  C      132.541    -192.271    -524.875
  O      133.680    -192.424    -524.425
  N      132.081    -191.042    -525.256
  C      130.858    -190.923    -525.693
  N      130.452    -189.676    -526.057
  C      129.914    -192.046    -525.774
  C      130.379    -193.239    -525.402
  O      127.370    -198.368    -524.366
  O      126.343    -196.013    -524.378
  H      133.930    -195.982    -523.356
  H      126.683    -198.522    -523.690
  H      128.908    -191.898    -526.150
  H      129.765    -194.126    -525.433
  H      133.160    -194.834    -525.093
  H      132.475    -193.705    -522.534
  H      130.504    -195.045    -522.317
  H      132.085    -197.289    -523.691
  H      131.115    -188.918    -525.978
  H      129.911    -197.991    -524.531
  H      129.530    -189.482    -526.428
  H      129.865    -197.972    -522.751
  P      130.718    -196.398    -520.131
  C      132.463    -195.294    -518.605
  O      131.144    -195.232    -519.120
  O      131.173    -197.720    -519.337
  O      129.276    -196.445    -520.516
  H      130.526    -197.921    -518.632
  H      132.679    -194.381    -518.061
  H      133.187    -195.411    -519.416
  H      132.546    -196.145    -517.910
  H      128.108    -195.779    -527.924
  H      127.927    -194.755    -526.520
  H      126.600    -195.764    -527.042

 3  4  5  6  7  8  9  10  11  12  13  21  23  27  28  29  30  32 0
 6-311+G(2d,p)
 ****
 34  35 0
 6-311+G(2d,p)
 ****
 1  2  14  15  16  17  18  19  20  22  24  25  26 0
 3-21G
 ****
 31  33  36  37  38  39  40  41  42  43  44  45  46 0
 3-21G
 ****


