%nproc=1
%NoSave
%Mem=1900MB
#P OB98/GEN NMR

erre ene a

0 1
  C     -103.348     145.986      52.765
  O     -101.942     146.134      52.563
  P     -100.930     145.331      53.516
  C      -99.327     144.718      51.602
  O      -99.465     145.366      52.858
  C      -98.108     145.218      50.816
  O      -98.460     146.351      49.980
  C      -96.925     145.651      51.694
  O      -95.730     145.287      50.996
  C      -97.086     147.156      51.737
  O      -95.898     147.821      52.134
  C      -97.551     147.424      50.302
  N      -98.178     148.727      50.150
  C      -97.356     149.848      50.254
  O      -96.172     149.718      50.565
  N      -97.906     151.088      50.030
  C      -99.187     151.201      49.872
  N      -99.690     152.443      49.633
  C     -100.111     150.052      49.938
  C      -99.541     148.856      50.053
  O     -101.394     143.980      53.948
  O     -100.773     146.313      54.775
  H      -95.640     147.509      53.027
  H     -100.669     145.773      55.583
  H     -101.180     150.205      49.883
  H     -100.132     147.952      50.103
  H      -96.709     147.358      49.600
  H      -97.876     147.422      52.449
  H      -96.920     145.177      52.682
  H      -97.787     144.408      50.144
  H      -99.047     153.224      49.616
  H     -100.231     144.890      51.010
  H     -100.672     152.605      49.448
  H      -99.276     143.634      51.763
  P      -95.128     143.812      51.198
  C      -94.779     143.351      48.664
  O      -94.192     143.483      49.940
  O      -96.413     142.893      50.902
  O      -94.580     143.504      52.553
  H      -96.303     142.040      51.360
  H      -93.993     143.412      47.907
  H      -95.503     144.150      48.473
  H      -95.273     142.379      48.581
  H     -103.876     146.584      52.052
  H     -103.602     146.304      53.755
  H     -103.620     144.959      52.640

 3  4  5  6  7  8  9  10  11  12  13  23  27  28  29  30  32 0
 6-311+G(2d,p)
 ****
 34  35 0
 6-311+G(2d,p)
 ****
 1  2  14  15  16  17  18  19  20  21  22  24  25  26 0
 3-21G
 ****
 31  33  36  37  38  39  40  41  42  43  44  45  46 0
 3-21G
 ****


