%nproc=1
%NoSave
%Mem=1900MB
#P OB98/GEN NMR

erre ene a

0 1
  C      572.270     548.789     543.150
  O      571.000     548.360     543.601
  H      572.598     548.167     542.310
  H      572.199     549.825     542.815
  H      573.001     548.730     543.965
  P      570.888     546.841     544.112
  C      570.333     544.584     542.932
  O      570.447     545.993     542.812
  C      570.117     543.973     541.555
  O      568.880     544.473     540.974
  C      571.211     544.331     540.546
  O      572.358     543.509     540.678
  C      570.476     544.081     539.233
  O      570.423     542.666     538.979
  C      569.078     544.635     539.543
  N      569.251     548.068     535.749
  C      569.404     546.733     535.757
  N      569.330     545.871     536.801
  C      569.047     546.561     537.935
  C      568.857     547.917     538.076
  C      568.979     548.695     536.918
  N      568.850     550.068     536.908
  N      568.608     548.236     539.400
  C      568.623     547.084     540.033
  N      568.909     546.030     539.206
  O      569.558     546.840     545.007
  O      572.069     546.301     544.831
  H      569.825     542.272     539.648
  H      569.511     546.027     545.547
  H      569.620     546.266     534.793
  H      568.441     546.947     541.104
  H      568.279     544.062     539.030
  H      570.987     544.539     538.375
  H      571.469     545.400     540.599
  H      570.024     542.886     541.655
  H      569.469     544.358     543.573
  H      569.102     550.553     536.062
  H      568.793     550.558     537.795
  H      571.239     544.175     543.378
  P      573.794     544.227     540.583
  C      575.509     544.652     538.656
  O      574.169     544.287     539.012
  O      574.790     543.120     541.161
  O      573.894     545.519     541.320
  H      575.541     543.532     541.619
  H      575.608     544.649     537.591
  H      576.195     543.949     539.080
  H      575.724     545.631     539.032

 6  7  8  9  10  11  12  13  14  15  25  28  32  33  34  35 0
 6-311+G(2d,p)
 ****
 36  39  40 0
 6-311+G(2d,p)
 ****
 1  2  3  4  5  16  17  18  19  20  21  22  23  24 0
 3-21G
 ****
 26  27  29  30  31  37  38  41  42  43  44  45  46  47 0
 3-21G
 ****
 48 0
 3-21G
 ****


