%nproc=1
%NoSave
%Mem=1900MB
#P OB98/GEN NMR

erre ene a

0 1
  C      937.760    -486.484    1186.507
  O      936.928    -485.939    1187.502
  H      938.387    -487.262    1186.944
  H      938.402    -485.718    1186.070
  H      937.148    -486.938    1185.710
  P      935.955    -484.746    1187.057
  C      936.257    -482.172    1186.823
  O      936.852    -483.417    1187.187
  C      936.745    -481.070    1187.760
  O      938.086    -480.647    1187.392
  C      935.888    -479.797    1187.714
  O      934.770    -479.929    1188.585
  C      936.881    -478.756    1188.254
  O      936.931    -478.830    1189.691
  C      938.223    -479.226    1187.651
  N      941.328    -475.684    1185.627
  C      941.041    -475.992    1186.916
  N      940.149    -476.915    1187.398
  C      939.562    -477.558    1186.373
  C      939.773    -477.337    1184.996
  C      940.709    -476.358    1184.650
  N      940.997    -476.057    1183.334
  N      938.970    -478.185    1184.248
  C      938.339    -478.929    1185.154
  N      938.640    -478.564    1186.435
  O      934.608    -484.708    1187.728
  O      935.901    -484.966    1185.454
  H      936.023    -478.617    1190.014
  H      936.790    -485.203    1185.121
  H      941.579    -475.418    1187.670
  H      937.693    -479.772    1184.896
  H      939.049    -479.118    1188.391
  H      936.595    -477.734    1187.996
  H      935.616    -479.527    1186.692
  H      936.795    -481.455    1188.781
  H      935.168    -482.264    1186.887
  H      941.523    -475.203    1183.158
  H      940.438    -476.478    1182.619
  H      936.523    -481.964    1185.782
  P      933.427    -479.078    1188.338
  C      933.035    -476.543    1188.244
  O      933.765    -477.599    1188.853
  O      932.190    -479.694    1188.914
  O      933.360    -478.906    1186.739
  H      932.459    -478.621    1186.459
  H      933.343    -475.608    1188.664
  H      931.989    -476.685    1188.419
  H      933.224    -476.540    1187.191

 6  7  8  9  10  11  12  13  14  15  25  28  32  33  34  35 0
 6-311+G(2d,p)
 ****
 36  39  40 0
 6-311+G(2d,p)
 ****
 1  2  3  4  5  16  17  18  19  20  21  22  23  24 0
 3-21G
 ****
 26  27  29  30  31  37  38  41  42  43  44  45  46  47 0
 3-21G
 ****
 48 0
 3-21G
 ****


