%nproc=1
%NoSave
%Mem=1900MB
#P OB98/GEN NMR

erre ene a

0 1
  C     -473.029     -13.923     508.902
  O     -472.984     -13.884     507.486
  H     -472.121     -13.456     509.293
  H     -473.068     -14.960     509.247
  H     -473.898     -13.372     509.270
  P     -474.245     -14.509     506.713
  C     -472.719     -16.358     505.705
  O     -473.649     -15.314     505.457
  C     -472.283     -16.987     504.388
  O     -473.432     -17.581     503.732
  C     -471.716     -15.995     503.387
  O     -470.374     -15.642     503.676
  C     -471.877     -16.764     502.080
  O     -470.792     -17.679     501.875
  C     -473.184     -17.528     502.307
  N     -475.182     -16.407     497.740
  C     -474.094     -17.119     498.096
  N     -473.632     -17.385     499.339
  C     -474.448     -16.849     500.268
  C     -475.592     -16.103     500.055
  C     -475.963     -15.885     498.718
  N     -477.055     -15.138     498.345
  N     -476.136     -15.687     501.258
  C     -475.341     -16.185     502.178
  N     -474.306     -16.902     501.631
  O     -474.936     -13.223     506.050
  O     -475.200     -15.274     507.567
  H     -469.998     -17.135     501.733
  H     -475.698     -12.946     506.592
  H     -473.505     -17.529     497.279
  H     -475.461     -16.055     503.250
  H     -473.131     -18.564     501.947
  H     -471.905     -16.086     501.232
  H     -472.348     -15.093     503.344
  H     -471.561     -17.788     504.598
  H     -473.186     -17.125     506.337
  H     -471.852     -15.943     506.237
  H     -477.223     -14.966     497.370
  H     -477.581     -14.649     499.067
  P     -470.049     -14.106     503.977
  C     -467.757     -13.814     502.763
  O     -468.454     -13.955     503.993
  O     -470.466     -13.916     505.511
  O     -470.754     -13.139     503.085
  H     -470.840     -13.025     505.646
  H     -466.708     -13.726     502.955
  H     -468.102     -12.937     502.256
  H     -467.936     -14.673     502.151

 6  7  8  9  10  11  12  13  14  15  25  28  32  33  34  35 0
 6-311+G(2d,p)
 ****
 36  37  40 0
 6-311+G(2d,p)
 ****
 1  2  3  4  5  16  17  18  19  20  21  22  23  24 0
 3-21G
 ****
 26  27  29  30  31  38  39 41  42  43  44  45  46  47  48 0
 3-21G
 ****


