%nproc=1
%NoSave
%Mem=1900MB
#P OB98/GEN NMR

erre ene a

0 1
  C      284.909    -120.616      30.619
  O      285.868    -119.896      31.367
  H      284.988    -121.675      30.878
  H      285.100    -120.505      29.547
  H      283.897    -120.273      30.857
  P      285.960    -118.306      31.163
  C      288.202    -117.747      29.985
  O      286.842    -118.130      29.827
  C      289.000    -118.876      30.629
  O      288.911    -120.092      29.848
  C      290.497    -118.613      30.753
  O      290.835    -117.685      31.769
  C      290.983    -120.018      31.072
  O      290.679    -120.335      32.443
  C      290.125    -120.856      30.096
  N      290.816    -121.145      28.841
  C      291.806    -122.139      28.879
  O      292.065    -122.720      29.929
  N      292.497    -122.427      27.723
  C      292.247    -121.762      26.638
  N      292.972    -122.087      25.525
  C      291.231    -120.695      26.558
  C      290.561    -120.441      27.680
  O      286.426    -117.521      32.349
  O      284.505    -117.881      30.647
  H      291.162    -119.694      33.000
  H      284.507    -116.901      30.515
  H      291.080    -120.152      25.633
  H      289.800    -119.668      27.700
  H      289.824    -121.806      30.561
  H      292.060    -120.142      30.944
  H      290.922    -118.310      29.786
  H      288.547    -119.084      31.606
  H      293.660    -122.824      25.611
  H      288.233    -116.842      30.603
  H      292.893    -121.572      24.658
  H      288.643    -117.527      29.012
  P      292.366    -117.192      31.825
  C      293.599    -118.108      33.946
  O      293.172    -118.337      32.610
  O      292.315    -115.974      32.860
  O      292.966    -116.807      30.507
  H      292.287    -115.117      32.387
  H      294.116    -118.972      34.308
  H      292.747    -117.917      34.565
  H      294.255    -117.263      33.971

 6  7  8  9  10  11  12  13  14  15  16  26  30  31  32  33  35 0
 6-311+G(2d,p)
 ****
 37  38 0
 6-311+G(2d,p)
 ****
 1  2  3  4  5  17  18  19  20  21  22  23  24  25 0
 3-21G
 ****
 27  28  29  34  36  39  40  41  42  43  44  45  46 0
 3-21G
 ****


