%nproc=1
%NoSave
%Mem=1900MB
#P OB98/GEN NMR

erre ene a

0 1
  C      631.651     683.831     197.987
  O      631.339     682.447     197.970
  H      631.995     684.120     196.995
  H      632.454     684.029     198.703
  H      630.768     684.406     198.242
  P      630.920     681.796     199.377
  C      630.941     679.547     198.029
  O      631.333     680.240     199.210
  C      631.977     678.491     197.670
  O      633.184     679.114     197.173
  C      632.430     677.625     198.841
  O      631.496     676.625     199.203
  C      633.713     677.041     198.258
  O      633.377     676.018     197.302
  C      634.311     678.294     197.569
  N      635.218     679.048     198.433
  C      636.093     678.301     199.239
  O      636.073     677.076     199.213
  N      636.930     678.968     200.105
  C      636.936     680.275     200.138
  N      637.783     680.880     201.008
  C      636.038     681.105     199.300
  C      635.216     680.423     198.487
  O      629.322     681.740     199.307
  O      631.471     682.453     200.590
  H      634.219     675.734     196.886
  H      628.965     681.214     200.069
  H      636.053     682.183     199.378
  H      634.532     680.969     197.830
  H      634.862     678.012     196.661
  H      634.358     676.583     199.007
  H      632.693     678.247     199.714
  H      631.558     677.873     196.860
  H      638.339     680.277     201.619
  H      630.849     680.274     197.224
  H      637.755     681.869     201.213
  H      629.969     679.071     198.194
  P      631.613     675.997     200.671
  C      630.677     673.818     199.549
  O      631.572     674.395     200.497
  O      630.166     676.320     201.322
  O      632.730     676.530     201.520
  H      630.242     676.497     202.279
  H      630.780     672.753     199.564
  H      630.908     674.185     198.571
  H      629.671     674.083     199.801

 6  7  8  9  10  11  12  13  14  15  16  26  30  31  32  33  35 0
 6-311+G(2d,p)
 ****
 37  38 0
 6-311+G(2d,p)
 ****
 1  2  3  4  5  17  18  19  20  21  22  23  24  25 0
 3-21G
 ****
 27  28  29  34  36  39  40  41  42  43  44  45  46 0
 3-21G
 ****


