%nproc=1
%NoSave
%Mem=1900MB
#P OB98/GEN NMR

erre ene a

0 1
  C       59.829    -435.821     182.046
  O       58.602    -435.605     181.366
  P       58.495    -435.799     179.773
  C       60.152    -435.350     177.839
  O       59.776    -435.037     179.176
  C       60.791    -434.126     177.185
  O       62.024    -433.806     177.849
  C       61.142    -434.306     175.712
  O       59.987    -434.227     174.895
  C       62.158    -433.192     175.517
  O       61.496    -431.934     175.341
  C       62.907    -433.202     176.869
  N       64.178    -433.911     176.800
  C       65.286    -433.178     176.379
  O       65.192    -431.990     176.081
  N       66.526    -433.799     176.323
  C       66.623    -435.045     176.641
  N       67.870    -435.593     176.637
  C       65.475    -435.884     177.038
  C       64.296    -435.260     177.096
  O       57.195    -435.395     179.176
  O       58.862    -437.338     179.522
  H       62.185    -431.252     175.249
  H       58.079    -437.943     179.575
  H       65.616    -436.935     177.277
  H       63.409    -435.798     177.407
  H       63.096    -432.190     177.210
  H       62.817    -433.346     174.654
  H       61.630    -435.279     175.557
  H       60.106    -433.276     177.310
  H       68.654    -434.949     176.525
  H       59.257    -435.629     177.281
  H       68.080    -436.454     177.127
  H       60.848    -436.194     177.853
  P       60.080    -434.832     173.405
  C       61.324    -434.131     171.241
  O       61.098    -433.863     172.622
  O       58.639    -434.493     172.787
  O       60.400    -436.283     173.349
  H       58.083    -435.287     172.788
  H       61.826    -433.262     170.804
  H       60.370    -434.281     170.717
  H       61.961    -435.008     171.124
  H       59.693    -435.642     183.092
  H       60.572    -435.153     181.663
  H       60.147    -436.832     181.896

 3  4  5  6  7  8  9  10  11  12  13  23  27  28  29  30  32 0
 6-311+G(2d,p)
 ****
 34  35 0
 6-311+G(2d,p)
 ****
 1  2  14  15  16  17  18  19  20  21  22  24  25  26 0
 3-21G
 ****
 31  33  36  37  38  39  40  41  42  43  44  45  46 0
 3-21G
 ****


