%nproc=1
%NoSave
%Mem=1900MB
#P OB98/GEN NMR

erre ene a

0 1
  C      612.577     581.432      77.971
  O      612.837     582.779      77.625
  H      612.877     581.283      79.012
  H      613.164     580.766      77.335
  H      611.514     581.201      77.876
  P      612.202     583.366      76.275
  C      614.598     583.216      75.314
  O      613.407     583.993      75.424
  C      615.645     583.939      74.465
  O      615.236     583.901      73.064
  C      615.757     585.423      74.843
  O      617.058     585.954      74.577
  C      614.761     586.094      73.918
  O      615.020     587.481      73.712
  C      614.887     585.240      72.660
  N      611.801     587.847      69.551
  C      612.830     588.307      70.351
  N      613.070     589.642      70.299
  N      613.543     587.541      71.123
  C      613.145     586.242      71.123
  C      612.130     585.664      70.396
  C      611.360     586.524      69.507
  O      610.426     586.172      68.809
  N      612.023     584.322      70.671
  C      612.962     584.091      71.553
  N      613.690     585.214      71.840
  O      611.420     584.669      76.772
  O      611.311     582.425      75.521
  H      614.739     587.955      74.513
  H      610.722     584.907      76.122
  H      611.300     588.476      68.947
  H      613.165     583.126      71.995
  H      615.714     585.608      72.027
  H      613.764     586.024      74.377
  H      612.415     590.284      69.869
  H      615.515     585.609      75.892
  H      613.599     590.034      71.087
  H      616.606     583.421      74.521
  H      614.315     582.261      74.855
  H      615.000     582.991      76.305
  P      618.191     585.794      75.703
  C      618.387     588.077      77.037
  O      618.853     587.220      76.013
  O      619.357     584.997      74.940
  O      617.748     585.089      76.937
  H      619.485     584.122      75.357
  H      618.981     588.967      77.055
  H      618.462     587.579      77.981
  H      617.365     588.334      76.850

 6  7  8  9  10  11  12  13  14  15  26  29  33  34 0
 6-311+G(2d,p)
 ****
 36  38  39  40  41 0
 6-311+G(2d,p)
 ****
 1  2  3  4  5  16  17  18  19  20  21  22  23  24  25 0
 3-21G
 ****
 27  28  30  31  32  35  37  42  43  44  45  46  47 0
 3-21G
 ****
 48  49 0
 3-21G
 ****


