%nproc=1
%NoSave
%Mem=1900MB
#P OB98/GEN NMR

erre ene a

0 1
  C      -13.639     406.196    -929.661
  O      -13.271     406.616    -930.985
  P      -14.144     406.067    -932.214
  C      -15.340     408.264    -932.940
  O      -14.363     407.278    -933.247
  C      -14.734     409.669    -933.071
  O      -13.729     409.909    -932.061
  C      -14.057     409.922    -934.415
  O      -14.999     410.290    -935.418
  C      -13.161     411.102    -934.070
  O      -13.947     412.318    -934.084
  C      -12.711     410.763    -932.647
  N       -7.703     411.419    -933.065
  C       -8.728     412.333    -933.147
  N       -8.376     413.615    -933.363
  N      -10.000     412.027    -933.024
  C      -10.213     410.712    -932.789
  C       -9.281     409.693    -932.686
  C       -7.881     410.053    -932.827
  O       -6.933     409.272    -932.774
  N       -9.878     408.484    -932.448
  C      -11.167     408.768    -932.391
  N      -11.419     410.100    -932.612
  O      -15.598     405.896    -931.560
  O      -13.650     404.791    -932.809
  H      -13.328     413.055    -933.910
  H      -16.091     405.193    -932.031
  H       -6.746     411.705    -933.164
  H      -11.939     408.041    -932.196
  H      -12.626     411.662    -932.015
  H      -12.360     411.242    -934.803
  H       -7.411     413.930    -933.414
  H      -13.445     409.069    -934.719
  H       -9.109     414.313    -933.403
  H      -15.550     410.399    -932.936
  H      -15.724     408.125    -931.930
  H      -16.199     408.135    -933.611
  P      -14.509     410.264    -936.947
  C      -16.274     408.501    -937.670
  O      -15.788     409.823    -937.801
  O      -13.551     408.990    -936.990
  O      -13.813     411.507    -937.399
  H      -12.841     409.128    -937.644
  H      -17.227     408.423    -938.201
  H      -16.423     408.242    -936.627
  H      -15.567     407.797    -938.125
  H      -12.974     406.638    -928.949
  H      -13.576     405.130    -929.595
  H      -14.641     406.508    -929.454

 3  4  5  6  7  8  9  10  11  12  23  26  30  31 0
 6-311+G(2d,p)
 ****
 33  35  36  37  38 0
 6-311+G(2d,p)
 ****
 1  2  13  14  15  16  17  18  19  20  21  22  24  25 0
 3-21G
 ****
 27  28  29  32  34  39  40  41  42  43  44  45  46  47  48  49 0
 3-21G
 ****


