%nproc=1
%NoSave
%Mem=1900MB
#P OB98/GEN NMR

erre ene a

0 1
  C     -288.266      -7.032     -84.804
  O     -286.874      -6.894     -85.011
  H     -288.801      -6.914     -85.750
  H     -288.464      -8.030     -84.408
  H     -288.617      -6.289     -84.081
  P     -286.368      -5.477     -85.567
  C     -287.570      -5.716     -87.854
  O     -286.332      -5.609     -87.166
  C     -287.356      -5.518     -89.350
  O     -288.526      -5.936     -90.079
  C     -287.103      -4.074     -89.774
  O     -285.758      -3.684     -89.545
  C     -287.413      -4.155     -91.260
  O     -286.292      -4.727     -91.962
  C     -288.601      -5.132     -91.287
  N     -293.128      -4.909     -93.666
  C     -292.071      -5.738     -93.811
  N     -290.907      -5.748     -93.126
  C     -290.901      -4.785     -92.192
  C     -291.910      -3.878     -91.907
  C     -293.067      -3.959     -92.699
  N     -294.116      -3.059     -92.584
  N     -291.532      -3.028     -90.886
  C     -290.309      -3.406     -90.574
  N     -289.889      -4.466     -91.328
  O     -284.819      -5.464     -85.149
  O     -287.094      -4.288     -85.032
  H     -286.624      -5.023     -92.828
  H     -284.717      -4.964     -84.318
  H     -292.169      -6.493     -94.585
  H     -289.693      -2.939     -89.817
  H     -288.553      -5.820     -92.139
  H     -287.615      -3.181     -91.712
  H     -287.812      -3.385     -89.298
  H     -286.526      -6.165     -89.663
  H     -288.261      -4.951     -87.483
  H     -294.625      -2.918     -93.452
  H     -293.899      -2.229     -92.043
  H     -287.995      -6.705     -87.660
  P     -285.412      -2.979     -88.146
  C     -285.424      -0.590     -89.136
  O     -284.661      -1.605     -88.501
  O     -284.250      -3.908     -87.555
  O     -286.552      -2.866     -87.191
  H     -284.506      -4.233     -86.668
  H     -284.804       0.264     -89.313
  H     -286.242      -0.312     -88.505
  H     -285.800      -0.957     -90.068

 6  7  8  9  10  11  12  13  14  15  25  28  32  33  34  35 0
 6-311+G(2d,p)
 ****
 36  39  40 0
 6-311+G(2d,p)
 ****
 1  2  3  4  5  16  17  18  19  20  21  22  23  24 0
 3-21G
 ****
 26  27  29  30  31  37  38  41  42  43  44  45  46  47  48 0
 3-21G
 ****


