%nproc=1
%NoSave
%Mem=1900MB
#P OB98/GEN NMR

erre ene a

0 1
  C     -188.297     862.543     161.143
  O     -189.251     862.727     160.112
  P     -188.769     862.479     158.596
  C     -190.028     864.343     157.287
  O     -189.972     862.978     157.656
  C     -190.779     864.517     155.968
  O     -190.021     863.963     154.876
  C     -192.124     863.803     155.913
  O     -193.159     864.551     156.547
  C     -192.363     863.740     154.415
  O     -192.869     865.008     153.951
  C     -190.941     863.484     153.874
  N     -188.651     860.179     150.804
  C     -188.524     861.549     150.864
  N     -187.717     862.127     149.947
  N     -189.138     862.292     151.756
  C     -189.911     861.578     152.612
  C     -190.107     860.212     152.648
  C     -189.436     859.407     151.653
  O     -189.538     858.188     151.505
  N     -190.963     859.857     153.669
  C     -191.271     861.004     154.236
  N     -190.700     862.072     153.613
  O     -188.820     860.884     158.442
  O     -187.413     863.030     158.266
  H     -193.762     865.110     154.345
  H     -188.292     860.606     157.667
  H     -188.151     859.646     150.092
  H     -191.929     861.083     155.095
  H     -190.761     864.044     152.956
  H     -193.107     862.978     154.140
  H     -187.275     861.615     149.194
  H     -192.060     862.795     156.317
  H     -187.664     863.144     149.936
  H     -190.893     865.595     155.780
  H     -189.006     864.744     157.194
  H     -190.534     864.910     158.090
  P     -193.971     863.803     157.716
  C     -196.274     863.643     156.527
  O     -195.502     864.262     157.529
  O     -193.504     864.572     159.037
  O     -193.720     862.331     157.801
  H     -193.595     863.999     159.820
  H     -197.343     863.892     156.704
  H     -196.156     862.555     156.537
  H     -195.998     864.024     155.531
  H     -188.753     862.741     162.090
  H     -187.477     863.215     160.995
  H     -187.940     861.535     161.123

 3  4  5  6  7  8  9  10  11  12  23  26  30  31 0
 6-311+G(2d,p)
 ****
 33  35  36  37  38 0
 6-311+G(2d,p)
 ****
 1  2  13  14  15  16  17  18  19  20  21  22  24  25 0
 3-21G
 ****
 27  28  29  32  34  39  40  41  42  43  44  45  46  47  48  49 0
 3-21G
 ****


