%nproc=1
%NoSave
%Mem=1900MB
#P OB98/GEN NMR

erre ene a

0 1
  C      536.626     265.239     498.060
  O      537.748     266.115     497.888
  P      538.696     266.067     496.592
  C      540.594     264.526     497.408
  O      540.212     265.851     497.061
  C      541.989     264.176     496.868
  O      541.972     264.145     495.427
  C      543.082     265.160     497.242
  O      543.484     264.992     498.590
  C      544.148     264.820     496.205
  O      544.924     263.679     496.618
  C      543.296     264.485     494.966
  N      543.260     265.578     494.002
  C      544.470     265.893     493.376
  O      545.508     265.304     493.679
  N      544.477     266.890     492.424
  C      543.389     267.561     492.187
  N      543.462     268.529     491.238
  C      542.120     267.320     492.895
  C      542.129     266.325     493.776
  O      538.500     267.219     495.660
  O      538.329     264.688     495.860
  H      544.379     262.891     496.432
  H      538.455     264.796     494.896
  H      541.249     267.918     492.687
  H      541.234     266.073     494.336
  H      543.685     263.592     494.465
  H      544.854     265.640     496.039
  H      542.730     266.187     497.077
  H      542.238     263.165     497.221
  H      544.344     268.668     490.766
  H      539.859     263.832     496.987
  H      542.672     269.107     490.973
  H      540.580     264.431     498.499
  P      542.894     265.955     499.723
  C      544.660     267.779     499.350
  O      544.098     266.858     500.268
  O      542.072     265.286     500.780
  O      542.010     267.011     498.897
  H      541.256     267.296     499.451
  H      545.157     268.576     499.914
  H      543.898     268.219     498.708
  H      545.405     267.263     498.736
  H      536.146     265.453     498.992
  H      536.963     264.223     498.057
  H      535.932     265.387     497.259

 3  4  5  6  7  8  9  10  11  12  13  23  27  28  29  30  32 0
 6-311+G(2d,p)
 ****
 34  35 0
 6-311+G(2d,p)
 ****
 1  2  14  15  16  17  18  19  20  21  22  24  25  26 0
 3-21G
 ****
 31  33  36  37  38  39  40  41  42  43  44  45  46 0
 3-21G
 ****


