%nproc=1
%NoSave
%Mem=1900MB
#P OB98/GEN NMR

erre ene a

0 1
  C      509.978      -3.503      58.585
  O      509.647      -3.106      59.900
  H      510.792      -2.870      58.225
  H      509.117      -3.373      57.923
  H      510.309      -4.545      58.565
  P      508.591      -3.983      60.727
  C      510.276      -4.290      62.654
  O      509.435      -4.934      61.702
  C      509.966      -4.811      64.057
  O      510.144      -6.245      64.099
  C      510.887      -4.256      65.136
  O      510.553      -2.921      65.467
  C      510.669      -5.270      66.245
  O      509.475      -4.979      66.986
  C      510.514      -6.588      65.453
  N      511.735      -7.390      65.482
  C      511.922      -8.189      66.604
  O      511.116      -8.250      67.534
  N      513.101      -8.880      66.655
  C      514.141      -8.740      65.783
  O      515.266      -9.182      65.998
  C      513.867      -7.929      64.586
  C      512.697      -7.291      64.498
  O      507.548      -4.675      59.913
  O      507.936      -2.928      61.738
  H      507.056      -2.664      61.403
  H      508.746      -4.991      66.331
  H      513.263      -9.433      67.490
  H      514.641      -7.851      63.831
  H      512.488      -6.664      63.642
  H      509.692      -7.185      65.866
  H      511.502      -5.279      66.949
  H      511.928      -4.315      64.797
  H      508.915      -4.587      64.285
  H      510.084      -3.211      62.616
  H      511.319      -4.478      62.389
  P      511.617      -1.983      66.214
  C      512.395      -0.690      64.129
  O      512.769      -1.594      65.165
  O      512.113      -2.501      67.526
  O      510.843      -0.594      66.408
  H      510.920      -0.318      67.344
  H      513.237      -0.505      63.495
  H      512.065       0.231      64.562
  H      511.602      -1.117      63.552

 6  7  8  9  10  11  12  13  14  15  16  27  31  32  33  34  35 0
 6-311+G(2d,p)
 ****
 36  37 0
 6-311+G(2d,p)
 ****
 1  2  3  4  5  17  18  19  20  21  22  23  24  25 0
 3-21G
 ****
 26  28  29  30  38  39  40  41  42  43  44  45 0
 3-21G
 ****


