%nproc=1
%NoSave
%Mem=1900MB
#P OB98/GEN NMR

erre ene a

0 1
  C      800.217    -461.462      53.651
  O      800.816    -460.526      54.534
  P      802.410    -460.335      54.474
  C      802.333    -457.818      53.643
  O      802.779    -459.149      53.468
  C      802.391    -457.086      52.300
  O      801.449    -457.672      51.367
  C      802.048    -455.604      52.399
  O      803.189    -454.819      52.723
  C      801.484    -455.311      51.024
  O      802.551    -455.167      50.067
  C      800.668    -456.601      50.755
  N      799.287    -456.667      51.260
  C      798.218    -456.584      50.371
  O      798.339    -456.441      49.156
  N      796.975    -456.680      50.920
  C      796.678    -457.014      52.208
  O      795.530    -457.139      52.633
  C      797.837    -457.242      53.078
  C      799.063    -457.052      52.576
  O      802.926    -461.645      53.727
  O      803.065    -460.160      55.807
  H      802.148    -454.911      49.223
  H      803.475    -462.188      54.317
  H      796.182    -456.550      50.310
  H      797.658    -457.556      54.091
  H      799.932    -457.216      53.207
  H      800.625    -456.806      49.677
  H      800.942    -454.369      51.011
  H      801.252    -455.452      53.135
  H      803.393    -457.209      51.877
  H      802.953    -457.298      54.377
  H      801.310    -457.822      54.032
  P      803.135    -453.826      53.976
  C      804.488    -455.452      55.436
  O      803.257    -454.773      55.275
  O      802.011    -452.849      53.999
  O      804.567    -453.108      53.943
  H      804.507    -452.238      53.485
  H      804.499    -455.923      56.424
  H      805.323    -454.747      55.372
  H      804.587    -456.228      54.679
  H      799.159    -461.475      53.810
  H      800.618    -462.436      53.838
  H      800.422    -461.180      52.639

 3  4  5  6  7  8  9  10  11  12  13  23  28  29  30  31  32 0
 6-311+G(2d,p)
 ****
 33  34 0
 6-311+G(2d,p)
 ****
 1  2  14  15  16  17  18  19  20  21  22  24  25  26  27 0
 3-21G
 ****
 35  36  37  38  39  40  41  42  43  44  45 0
 3-21G
 ****


