%nproc=1
%NoSave
%Mem=1900MB
#P OB98/GEN NMR

erre ene a

0 1
  C      176.449     425.047     172.906
  O      175.405     425.572     172.111
  H      177.174     425.842     173.098
  H      176.953     424.238     172.372
  H      176.072     424.680     173.865
  P      174.068     424.705     171.921
  C      173.609     422.339     171.004
  O      174.453     423.483     170.954
  C      174.014     421.320     169.937
  O      173.866     421.925     168.619
  C      175.471     420.837     170.059
  O      175.518     419.485     169.572
  C      176.182     421.763     169.092
  O      177.453     421.264     168.732
  C      175.150     421.858     167.968
  N      175.380     423.003     167.085
  C      176.624     423.077     166.472
  O      177.520     422.251     166.665
  N      176.832     424.154     165.659
  C      175.952     425.177     165.451
  O      176.203     426.139     164.732
  C      174.665     425.066     166.161
  C      174.437     424.002     166.929
  O      172.854     425.472     171.510
  O      173.863     423.979     173.334
  H      177.369     420.375     168.323
  H      172.911     423.835     173.503
  H      177.725     424.212     165.195
  H      173.950     425.871     166.022
  H      173.502     423.897     167.468
  H      175.164     420.947     167.351
  H      176.336     422.746     169.546
  H      175.860     420.894     171.077
  H      173.317     420.473     169.978
  H      172.578     422.671     170.822
  H      173.670     421.884     171.998
  P      174.963     418.251     170.440
  C      175.933     416.160     171.600
  O      176.215     417.447     171.055
  O      173.981     417.386     169.716
  O      174.290     418.927     171.723
  H      173.574     418.351     172.062
  H      176.836     415.726     171.976
  H      175.526     415.531     170.836
  H      175.226     416.257     172.397

 6  7  8  9  10  11  12  13  14  15  16  26  31  32  33  34  35 0
 6-311+G(2d,p)
 ****
 36  37 0
 6-311+G(2d,p)
 ****
 1  2  3  4  5  17  18  19  20  21  22  23  24  25 0
 3-21G
 ****
 27  28  29  30  38  39  40  41  42  43  44  45 0
 3-21G
 ****


