%nproc=1
%NoSave
%Mem=1900MB
#P OB98/GEN NMR

erre ene a

0 1
  C     -186.046     -21.648     128.114
  O     -187.206     -22.019     127.399
  H     -186.161     -20.617     128.458
  H     -185.163     -21.708     127.469
  H     -185.918     -22.298     128.983
  P     -187.216     -23.489     126.756
  C     -189.735     -24.026     126.657
  O     -188.597     -23.560     125.941
  C     -190.349     -22.891     127.477
  O     -190.668     -21.795     126.583
  C     -191.643     -23.289     128.198
  O     -191.700     -22.618     129.459
  C     -192.727     -22.738     127.289
  O     -193.956     -22.523     127.980
  C     -192.056     -21.470     126.764
  N     -195.430     -18.246     124.730
  C     -194.916     -18.350     125.973
  N     -193.997     -19.230     126.424
  C     -193.569     -20.022     125.425
  C     -193.999     -20.035     124.110
  C     -194.989     -19.094     123.772
  N     -195.545     -18.999     122.519
  N     -193.354     -21.027     123.402
  C     -192.540     -21.598     124.270
  N     -192.653     -21.036     125.511
  O     -186.984     -24.611     127.712
  O     -186.131     -23.347     125.588
  H     -193.757     -22.101     128.842
  H     -186.268     -22.530     125.072
  H     -195.296     -17.642     126.705
  H     -191.868     -22.425     124.057
  H     -192.129     -20.630     127.466
  H     -192.923     -23.441     126.471
  H     -191.739     -24.364     128.346
  H     -189.598     -22.520     128.183
  H     -189.449     -24.848     127.322
  H     -196.248     -18.295     122.362
  H     -195.227     -19.619     121.788
  H     -190.459     -24.405     125.928
  P     -191.639     -23.486     130.805
  C     -190.569     -21.739     132.366
  O     -191.735     -22.491     132.063
  O     -190.541     -24.492     130.878
  O     -193.076     -24.201     130.827
  H     -192.964     -25.132     131.112
  H     -190.756     -21.118     133.217
  H     -190.312     -21.126     131.527
  H     -189.761     -22.406     132.582

 6  7  8  9  10  11  12  13  14  15  25  28  32  33  34  35 0
 6-311+G(2d,p)
 ****
 36  39  40 0
 6-311+G(2d,p)
 ****
 1  2  3  4  5  16  17  18  19  20  21  22  23  24 0
 3-21G
 ****
 26  27  29  30  31  37  38  41  42  43  44  45  46  47 0
 3-21G
 ****
 48 0
 3-21G
 ****


