%nproc=1
%NoSave
%Mem=1900MB
#P OB98/GEN NMR

erre ene a

0 1
  C       16.872     763.355    -472.305
  O       16.328     762.976    -471.061
  H       17.139     764.414    -472.257
  H       16.135     763.223    -473.101
  H       17.770     762.776    -472.524
  P       15.803     761.473    -470.857
  C       17.483     761.601    -468.920
  O       16.904     760.766    -469.915
  C       17.738     760.821    -467.630
  O       16.538     760.829    -466.809
  C       18.125     759.350    -467.862
  O       19.257     759.014    -467.057
  C       16.907     758.581    -467.375
  O       17.214     757.246    -466.979
  C       16.404     759.505    -466.263
  N       15.038     759.198    -465.870
  C       14.875     758.155    -464.953
  O       15.861     757.556    -464.517
  N       13.610     757.780    -464.594
  C       12.584     758.361    -465.139
  N       11.355     757.921    -464.759
  C       12.706     759.448    -466.130
  C       13.950     759.815    -466.443
  O       15.494     760.744    -472.120
  O       14.540     761.606    -469.882
  H       17.733     757.281    -466.144
  H       13.969     760.812    -469.990
  H       11.827     759.899    -466.561
  H       14.142     760.605    -467.163
  H       17.047     759.435    -465.373
  H       16.165     758.529    -468.178
  H       18.350     759.127    -468.902
  H       18.507     761.347    -467.051
  H       11.321     757.168    -464.082
  H       16.809     762.441    -468.728
  H       10.491     758.282    -465.133
  H       18.437     761.982    -469.300
  P       20.074     757.704    -467.499
  C       22.417     758.782    -467.215
  O       21.486     758.178    -468.099
  O       19.265     757.176    -468.778
  O       20.153     756.663    -466.429
  H       18.804     756.347    -468.551
  H       23.304     759.043    -467.754
  H       22.664     758.095    -466.433
  H       21.985     759.664    -466.791

 6  7  8  9  10  11  12  13  14  15  16  26  30  31  32  33  35 0
 6-311+G(2d,p)
 ****
 37  38 0
 6-311+G(2d,p)
 ****
 1  2  3  4  5  17  18  19  20  21  22  23  24  25 0
 3-21G
 ****
 27  28  29  34  36  39  40  41  42  43  44  45  46 0
 3-21G
 ****


