%nproc=1
%NoSave
%Mem=1900MB
#P OB98/GEN NMR

erre ene a

0 1
  C     -122.125    -226.225    -248.474
  O     -122.214    -227.515    -249.062
  P     -120.962    -228.024    -249.936
  C     -121.085    -230.499    -249.157
  O     -120.358    -229.275    -249.135
  C     -120.790    -231.322    -247.905
  O     -121.467    -230.755    -246.767
  C     -121.251    -232.770    -247.979
  O     -120.325    -233.593    -248.675
  C     -121.280    -233.136    -246.503
  O     -119.944    -233.418    -246.042
  C     -121.797    -231.843    -245.864
  N     -125.575    -234.081    -243.242
  C     -124.253    -234.343    -243.314
  N     -123.313    -233.707    -244.044
  C     -123.867    -232.730    -244.785
  C     -125.205    -232.375    -244.844
  C     -126.084    -233.092    -244.017
  N     -127.426    -232.808    -243.925
  N     -125.392    -231.329    -245.721
  C     -124.185    -231.049    -246.176
  N     -123.231    -231.862    -245.633
  O     -119.871    -226.875    -249.699
  O     -121.248    -228.239    -251.380
  H     -119.647    -234.219    -246.510
  H     -119.229    -226.868    -250.437
  H     -123.901    -235.160    -242.696
  H     -123.960    -230.267    -246.887
  H     -121.312    -231.626    -244.905
  H     -121.884    -234.025    -246.300
  H     -122.262    -232.846    -248.396
  H     -119.710    -231.268    -247.718
  H     -120.793    -231.073    -250.040
  H     -127.951    -233.238    -243.178
  H     -127.760    -231.947    -244.347
  H     -122.155    -230.276    -249.224
  P     -120.833    -234.250    -250.048
  C     -119.408    -233.211    -251.959
  O     -120.582    -233.133    -251.170
  O     -122.425    -234.274    -249.875
  O     -120.268    -235.603    -250.323
  H     -122.814    -234.982    -250.422
  H     -119.542    -232.589    -252.847
  H     -119.214    -234.238    -252.277
  H     -118.552    -232.834    -251.391
  H     -123.021    -226.020    -247.927
  H     -122.000    -225.491    -249.242
  H     -121.286    -226.193    -247.810

 3  4  5  6  7  8  9  10  11  12  22  25  29  30  31  32 0
 6-311+G(2d,p)
 ****
 33  36  37 0
 6-311+G(2d,p)
 ****
 1  2  13  14  15  16  17  18  19  20  21  23  24  26 0
 3-21G
 ****
 27  28  34  35  38  39  40  41  42  43  44  45  46  47  48 0
 3-21G
 ****


