%nproc=1
%NoSave
%Mem=1900MB
#P OB98/GEN NMR

erre ene a

0 1
  C       82.520    -354.684    -165.535
  O       83.318    -354.777    -164.346
  P       84.210    -356.091    -164.138
  C       86.185    -354.775    -163.069
  O       85.238    -355.829    -162.937
  C       86.433    -354.106    -161.715
  O       85.335    -353.254    -161.330
  C       86.599    -355.089    -160.565
  O       87.922    -355.608    -160.511
  C       86.333    -354.194    -159.367
  O       87.512    -353.421    -159.064
  C       85.218    -353.277    -159.888
  N       82.176    -354.747    -156.040
  C       83.481    -354.401    -156.076
  N       84.226    -354.040    -157.141
  C       83.484    -354.040    -158.259
  C       82.146    -354.368    -158.381
  C       81.476    -354.737    -157.201
  N       80.147    -355.087    -157.170
  N       81.729    -354.263    -159.692
  C       82.798    -353.860    -160.349
  N       83.885    -353.722    -159.530
  O       85.151    -356.099    -165.433
  O       83.415    -357.352    -164.035
  H       87.784    -352.983    -159.893
  H       85.325    -357.018    -165.712
  H       83.999    -354.418    -155.119
  H       82.830    -353.658    -161.412
  H       85.328    -352.247    -159.531
  H       86.084    -354.759    -158.466
  H       85.846    -355.887    -160.618
  H       87.336    -353.487    -161.802
  H       85.826    -354.037    -163.792
  H       79.731    -355.313    -156.282
  H       79.616    -355.058    -158.029
  H       87.115    -355.183    -163.481
  P       88.142    -357.115    -161.010
  C       90.448    -356.758    -162.156
  O       89.728    -357.327    -161.078
  O       87.691    -357.055    -162.545
  O       87.374    -358.138    -160.245
  H       87.329    -357.917    -162.823
  H       91.508    -356.728    -161.893
  H       90.108    -355.739    -162.362
  H       90.319    -357.376    -163.049
  H       81.984    -353.758    -165.533
  H       81.826    -355.498    -165.563
  H       83.155    -354.727    -166.395

 3  4  5  6  7  8  9  10  11  12  22  25  29  30  31  32 0
 6-311+G(2d,p)
 ****
 33  36  37 0
 6-311+G(2d,p)
 ****
 1  2  13  14  15  16  17  18  19  20  21  23  24  26 0
 3-21G
 ****
 27  28  34  35  38  39  40  41  42  43  44  45  46  47  48 0
 3-21G
 ****


