%nproc=1
%NoSave
%Mem=1900MB
#P OB98/GEN NMR

erre ene a

0 1
  C      215.597    -217.082    -175.689
  O      214.400    -217.573    -176.281
  P      214.106    -219.149    -176.202
  C      215.209    -219.633    -178.497
  O      215.218    -219.880    -177.099
  C      215.692    -220.855    -179.276
  O      217.135    -220.958    -179.144
  C      215.096    -222.187    -178.809
  O      214.977    -223.031    -179.964
  C      216.175    -222.744    -177.901
  O      216.064    -224.154    -177.726
  C      217.425    -222.282    -178.645
  N      221.091    -225.092    -176.437
  C      220.077    -225.424    -177.270
  N      219.141    -224.620    -177.815
  C      219.323    -223.347    -177.423
  C      220.289    -222.863    -176.556
  C      221.211    -223.794    -176.051
  N      222.250    -223.456    -175.219
  N      220.138    -221.502    -176.375
  C      219.100    -221.170    -177.118
  N      218.593    -222.250    -177.789
  O      212.767    -219.297    -177.069
  O      213.923    -219.694    -174.824
  H      215.268    -224.336    -177.195
  H      212.018    -219.534    -176.485
  H      220.015    -226.478    -177.535
  H      218.682    -220.176    -177.204
  H      217.655    -222.925    -179.505
  H      216.107    -222.275    -176.910
  H      214.127    -222.092    -178.306
  H      215.477    -220.691    -180.342
  H      215.874    -218.794    -178.710
  H      222.942    -224.153    -175.008
  H      222.458    -222.473    -175.077
  H      214.196    -219.359    -178.813
  P      213.494    -223.422    -180.427
  C      213.527    -225.583    -178.989
  O      212.883    -224.355    -179.279
  O      213.741    -224.430    -181.647
  O      212.650    -222.257    -180.835
  H      212.987    -224.399    -182.268
  H      213.423    -225.796    -177.924
  H      214.591    -225.553    -179.247
  H      213.044    -226.381    -179.567
  H      215.652    -216.022    -175.822
  H      216.442    -217.544    -176.156
  H      215.598    -217.311    -174.644

 3  4  5  6  7  8  9  10  11  12  22  25  29  30  31  32 0
 6-311+G(2d,p)
 ****
 33  36  37 0
 6-311+G(2d,p)
 ****
 1  2  13  14  15  16  17  18  19  20  21  23  24  26 0
 3-21G
 ****
 27  28  34  35  38  39  40  41  42  43  44  45  46  47  48 0
 3-21G
 ****


