%nproc=1
%NoSave
%Mem=1900MB
#P OB98/GEN NMR

erre ene a

0 1
  C       22.503     294.278    -894.760
  O       23.608     294.901    -895.430
  P       23.289     296.036    -896.520
  C       24.265     298.125    -895.270
  O       24.387     297.209    -896.360
  C       25.656     298.480    -894.710
  O       26.137     297.458    -893.790
  C       26.739     298.633    -895.780
  O       26.700     299.907    -896.400
  C       28.002     298.445    -894.950
  O       28.305     299.709    -894.300
  C       27.582     297.388    -893.930
  N       31.337     293.987    -893.920
  C       31.272     295.229    -893.380
  N       32.387     295.682    -892.740
  N       30.232     296.044    -893.470
  C       29.192     295.487    -894.120
  C       29.108     294.212    -894.690
  C       30.278     293.352    -894.600
  O       30.394     292.225    -895.060
  N       27.872     293.999    -895.260
  C       27.214     295.123    -895.020
  N       27.972     296.047    -894.350
  O       21.975     296.726    -895.910
  O       23.050     295.546    -897.910
  H       27.552     299.911    -893.700
  H       21.433     297.117    -896.620
  H       32.147     293.413    -893.830
  H       26.188     295.286    -895.330
  H       28.027     297.576    -892.950
  H       28.873     298.207    -895.580
  H       33.207     295.104    -892.610
  H       26.670     297.821    -896.530
  H       32.370     296.584    -892.320
  H       25.559     299.428    -894.160
  H       23.652     297.708    -894.470
  H       23.739     299.022    -895.630
  P       27.524     300.128    -897.750
  C       25.437     300.627    -899.210
  O       26.651     301.113    -898.650
  O       27.392     298.706    -898.480
  O       28.965     300.537    -897.560
  H       28.201     298.514    -899.010
  H       24.901     301.481    -899.660
  H       24.818     300.172    -898.450
  H       25.649     299.888    -900.000
  H       22.870     293.549    -894.069
  H       21.872     293.801    -895.481
  H       21.942     295.020    -894.231

 3  4  5  6  7  8  9  10  11  12  23  26  30  31 0
 6-311+G(2d,p)
 ****
 33  35  36  37  38 0
 6-311+G(2d,p)
 ****
 1  2  13  14  15  16  17  18  19  20  21  22  24  25 0
 3-21G
 ****
 27  28  29  32  34  39  40  41  42  43  44  45  46  47  48  49 0
 3-21G
 ****


