%nproc=1
%NoSave
%Mem=1900MB
#P OB98/GEN NMR

erre ene a

0 1
  C      -44.938    -457.518    -123.955
  O      -45.886    -458.259    -124.698
  H      -44.280    -456.968    -124.629
  H      -45.470    -456.804    -123.318
  H      -44.350    -458.187    -123.320
  P      -45.294    -459.354    -125.711
  C      -47.318    -460.956    -125.521
  O      -46.554    -460.109    -126.367
  C      -48.707    -461.173    -126.111
  O      -49.524    -460.017    -125.782
  C      -48.721    -461.347    -127.639
  O      -49.477    -462.505    -128.007
  C      -49.449    -460.113    -128.147
  O      -50.235    -460.369    -129.305
  C      -50.298    -459.711    -126.948
  N      -53.341    -456.265    -129.157
  C      -53.454    -457.604    -129.031
  N      -52.660    -458.455    -128.348
  C      -51.677    -457.784    -127.721
  C      -51.448    -456.419    -127.733
  C      -52.325    -455.646    -128.513
  N      -52.176    -454.284    -128.688
  N      -50.335    -456.098    -126.976
  C      -49.873    -457.256    -126.552
  N      -50.644    -458.305    -126.987
  O      -44.660    -460.454    -124.731
  O      -44.282    -458.828    -126.672
  H      -49.641    -460.753    -129.979
  H      -43.702    -460.514    -124.906
  H      -54.289    -458.058    -129.557
  H      -48.973    -457.398    -125.968
  H      -51.228    -460.291    -126.897
  H      -48.711    -459.340    -128.391
  H      -47.713    -461.419    -128.064
  H      -49.169    -462.040    -125.621
  H      -47.415    -460.493    -124.531
  H      -52.779    -453.829    -129.352
  H      -51.356    -453.836    -128.301
  H      -46.797    -461.915    -125.409
  P      -48.661    -463.680    -128.748
  C      -50.032    -465.555    -127.584
  O      -49.605    -464.977    -128.815
  O      -47.535    -464.073    -127.679
  O      -48.058    -463.266    -130.048
  H      -46.651    -463.985    -128.078
  H      -50.650    -466.405    -127.785
  H      -50.590    -464.833    -127.025
  H      -49.177    -465.861    -127.018

 6  7  8  9  10  11  12  13  14  15  25  28  32  33  34  35 0
 6-311+G(2d,p)
 ****
 36  39  40 0
 6-311+G(2d,p)
 ****
 1  2  3  4  5  16  17  18  19  20  21  22  23  24 0
 3-21G
 ****
 26  27  29  30  31  37  38  41  42  43  44  45  46  47  48 0
 3-21G
 ****


