%nproc=1
%NoSave
%Mem=1900MB
#P OB98/GEN NMR

erre ene a

0 1
  C     -770.205    -717.687    -647.874
  O     -771.156    -716.658    -647.710
  P     -772.220    -716.333    -648.871
  C     -772.215    -715.958    -651.409
  O     -771.415    -716.122    -650.232
  C     -771.484    -715.056    -652.409
  O     -770.323    -715.735    -652.973
  C     -772.332    -714.659    -653.609
  O     -773.295    -713.684    -653.274
  C     -771.260    -714.138    -654.550
  O     -770.868    -712.804    -654.228
  C     -770.107    -715.115    -654.263
  N     -769.943    -716.147    -655.291
  C     -769.170    -715.817    -656.406
  O     -768.702    -714.671    -656.511
  N     -768.944    -716.767    -657.357
  C     -769.523    -717.915    -657.302
  N     -769.191    -718.836    -658.229
  C     -770.468    -718.252    -656.216
  C     -770.629    -717.343    -655.262
  O     -773.205    -715.263    -648.558
  O     -772.958    -717.741    -649.097
  H     -773.932    -717.574    -649.102
  H     -771.668    -712.246    -654.335
  H     -770.999    -719.200    -656.247
  H     -771.296    -717.523    -654.415
  H     -769.137    -714.574    -654.171
  H     -771.592    -714.147    -655.590
  H     -772.802    -715.540    -654.034
  H     -771.126    -714.134    -651.883
  H     -768.530    -718.565    -658.926
  H     -773.142    -715.494    -651.114
  H     -769.344    -719.827    -658.099
  H     -772.409    -716.940    -651.845
  P     -774.755    -713.867    -653.945
  C     -775.737    -713.472    -656.323
  O     -774.578    -713.509    -655.508
  O     -775.580    -712.606    -653.395
  O     -775.453    -715.146    -653.642
  H     -776.501    -712.839    -653.250
  H     -775.492    -712.915    -657.239
  H     -776.563    -712.964    -655.798
  H     -776.035    -714.507    -656.610
  H     -769.592    -717.748    -646.999
  H     -769.592    -717.474    -648.725
  H     -770.710    -718.619    -648.022

 3  4  5  6  7  8  9  10  11  12  13  24  27  28  29  30  32 0
 6-311+G(2d,p)
 ****
 34  35 0
 6-311+G(2d,p)
 ****
 1  2  14  15  16  17  18  19  20  21  22  23  25  26 0
 3-21G
 ****
 31  33  36  37  38  39  40  41  42  43  44  45  46 0
 3-21G
 ****


