%nproc=1
%NoSave
%Mem=1900MB
#P OB98/GEN NMR

erre ene a

0 1
  C      283.943      69.762    -360.622
  O      282.598      69.540    -360.246
  H      284.608      69.608    -359.767
  H      284.208      69.052    -361.409
  H      284.063      70.778    -361.007
  P      282.049      70.418    -359.020
  C      279.793      71.547    -358.421
  O      280.527      70.794    -359.373
  C      278.541      72.129    -359.062
  O      278.897      73.108    -360.061
  C      277.663      71.113    -359.793
  O      276.858      70.363    -358.890
  C      276.821      72.038    -360.656
  O      275.751      72.596    -359.871
  C      277.824      73.142    -361.037
  N      279.048      75.532    -365.417
  C      278.492      75.983    -364.268
  N      278.186      75.290    -363.153
  C      278.525      73.994    -363.285
  C      279.094      73.395    -364.388
  C      279.357      74.215    -365.502
  N      279.904      73.742    -366.671
  N      279.314      72.054    -364.154
  C      278.887      71.845    -362.929
  N      278.389      72.990    -362.362
  O      282.821      71.813    -359.183
  O      282.264      69.828    -357.665
  H      276.144      73.307    -359.331
  H      283.017      72.173    -358.295
  H      278.266      77.046    -364.240
  H      278.912      70.891    -362.415
  H      277.367      74.138    -360.973
  H      276.372      71.534    -361.513
  H      278.264      70.461    -360.433
  H      277.968      72.644    -358.279
  H      280.417      72.364    -358.046
  H      280.248      74.405    -367.347
  H      280.142      72.754    -366.723
  H      279.525      70.890    -357.585
  P      276.589      68.822    -359.250
  C      276.157      66.680    -357.847
  O      276.521      68.057    -357.841
  O      277.989      68.340    -359.862
  O      275.456      68.580    -360.189
  H      277.846      67.584    -360.464
  H      276.154      66.308    -356.844
  H      276.863      66.127    -358.431
  H      275.181      66.571    -358.271

 6  7  8  9  10  11  12  13  14  15  25  28  32  33  34  35 0
 6-311+G(2d,p)
 ****
 36  39  40 0
 6-311+G(2d,p)
 ****
 1  2  3  4  5  16  17  18  19  20  21  22  23  24 0
 3-21G
 ****
 26  27  29  30  31  37  38  41  42  43  44  45  46  47  48 0
 3-21G
 ****


