%nproc=1
%NoSave
%Mem=1900MB
#P OB98/GEN NMR

erre ene a

0 1
  C       -0.913     -39.612     -88.473
  O       -1.376     -40.703     -87.709
  H       -1.456     -39.595     -89.422
  H        0.154     -39.734     -88.681
  H       -1.080     -38.663     -87.957
  P       -1.091     -40.717     -86.135
  C        0.455     -42.777     -86.295
  O        0.336     -41.415     -85.902
  C        1.218     -43.605     -85.261
  O        2.623     -43.270     -85.290
  C        0.747     -43.328     -83.833
  O       -0.393     -44.058     -83.418
  C        1.976     -43.722     -83.018
  O        1.980     -45.134     -82.748
  C        3.133     -43.350     -83.948
  N        5.861     -40.763     -80.489
  C        5.347     -42.044     -80.410
  N        5.536     -42.692     -79.240
  N        4.695     -42.619     -81.385
  C        4.500     -41.815     -82.457
  C        4.949     -40.526     -82.644
  C        5.718     -39.917     -81.578
  O        6.189     -38.784     -81.594
  N        4.560     -40.029     -83.865
  C        3.816     -40.987     -84.381
  N        3.772     -42.101     -83.576
  O       -2.111     -41.822     -85.577
  O       -1.285     -39.405     -85.437
  H        1.176     -45.353     -82.244
  H       -2.327     -41.635     -84.646
  H        6.378     -40.381     -79.716
  H        3.311     -40.936     -85.340
  H        3.912     -44.123     -83.948
  H        1.998     -43.215     -82.048
  H        5.928     -42.248     -78.424
  H        0.570     -42.257     -83.691
  H        4.955     -43.511     -79.049
  H        1.133     -44.668     -85.516
  H        0.990     -42.783     -87.247
  H       -0.534     -43.207     -86.476
  P       -1.386     -43.441     -82.325
  C        0.052     -44.046     -80.242
  O       -0.494     -43.032     -81.058
  O       -2.201     -44.723     -81.821
  O       -2.292     -42.371     -82.832
  H       -3.051     -44.789     -82.294
  H        0.615     -43.601     -79.448
  H        0.694     -44.669     -80.829
  H       -0.739     -44.637     -79.830

 6  7  8  9  10  11  12  13  14  15  26  29  33  34 0
 6-311+G(2d,p)
 ****
 36  38  39  40  41 0
 6-311+G(2d,p)
 ****
 1  2  3  4  5  16  17  18  19  20  21  22  23  24  25 0
 3-21G
 ****
 27  28  30  31  32  35  37  42  43  44  45  46  47 0
 3-21G
 ****
 48  49 0
 3-21G
 ****


