%nproc=1
%NoSave
%Mem=1900MB
#P OB98/GEN NMR

erre ene a

0 1
  C        9.860    -216.816     -70.574
  O       10.772    -217.802     -70.132
  H       10.156    -215.852     -70.152
  H        8.849    -217.056     -70.234
  H        9.880    -216.746     -71.665
  P       10.471    -219.308     -70.601
  C        8.644    -220.995     -69.866
  O        8.972    -219.636     -70.126
  C        7.143    -221.147     -69.637
  O        6.405    -220.803     -70.829
  C        6.707    -222.551     -69.238
  O        6.873    -222.758     -67.845
  C        5.243    -222.537     -69.661
  O        4.428    -221.865     -68.678
  C        5.296    -221.732     -70.967
  N        3.082    -225.085     -74.027
  C        2.643    -224.536     -72.837
  N        1.448    -224.968     -72.376
  N        3.319    -223.656     -72.150
  C        4.525    -223.361     -72.697
  C        5.070    -223.835     -73.867
  C        4.285    -224.768     -74.646
  O        4.583    -225.225     -75.747
  N        6.305    -223.282     -74.098
  C        6.516    -222.505     -73.052
  N        5.465    -222.524     -72.170
  O       11.371    -220.193     -69.613
  O       10.782    -219.610     -72.027
  H        4.818    -220.996     -68.482
  H       11.733    -220.950     -70.114
  H        2.506    -225.735     -74.529
  H        7.402    -221.907     -72.892
  H        4.390    -221.134     -71.113
  H        4.843    -223.548     -69.754
  H        1.031    -225.830     -72.693
  H        7.245    -223.310     -69.818
  H        1.163    -224.622     -71.468
  H        6.854    -220.420     -68.863
  H        9.184    -221.323     -68.974
  H        8.950    -221.608     -70.720
  P        6.836    -224.261     -67.294
  C        5.261    -226.272     -67.769
  O        5.381    -224.866     -67.603
  O        6.828    -224.058     -65.704
  O        7.985    -225.109     -67.718
  H        7.707    -224.276     -65.340
  H        4.240    -226.522     -67.968
  H        5.581    -226.765     -66.875
  H        5.872    -226.588     -68.589

 6  7  8  9  10  11  12  13  14  15  26  29  33  34 0
 6-311+G(2d,p)
 ****
 36  38  39  40  41 0
 6-311+G(2d,p)
 ****
 1  2  3  4  5  16  17  18  19  20  21  22  23  24  25 0
 3-21G
 ****
 27  28  30  31  32  35  37  42  43  44  45  46  47 0
 3-21G
 ****
 48  49 0
 3-21G
 ****


