%nproc=1
%NoSave
%Mem=1900MB
#P OB98/GEN NMR

erre ene a

0 1
  C       29.920    -293.443    -265.936
  O       30.829    -292.670    -266.738
  P       30.353    -291.557    -267.789
  C       29.593    -291.447    -270.254
  O       30.232    -292.225    -269.248
  C       29.830    -292.023    -271.657
  O       31.172    -291.669    -272.125
  C       29.709    -293.560    -271.750
  O       29.074    -293.843    -272.993
  C       31.170    -293.989    -271.743
  O       31.372    -295.305    -272.234
  C       31.766    -292.886    -272.620
  N       33.224    -292.795    -272.601
  C       33.943    -293.703    -273.393
  O       33.379    -294.581    -274.032
  N       35.317    -293.600    -273.423
  C       35.913    -292.686    -272.723
  N       37.276    -292.639    -272.805
  C       35.203    -291.724    -271.868
  C       33.875    -291.834    -271.858
  O       31.187    -290.320    -267.771
  O       28.833    -291.225    -267.396
  H       28.671    -290.267    -267.552
  H       31.113    -295.312    -273.180
  H       35.742    -290.972    -271.312
  H       33.272    -291.143    -271.273
  H       31.424    -293.010    -273.657
  H       31.546    -293.952    -270.719
  H       29.109    -293.991    -270.942
  H       29.129    -291.543    -272.344
  H       37.733    -293.310    -273.415
  H       29.999    -290.427    -270.215
  H       37.842    -291.963    -272.313
  H       28.518    -291.395    -270.037
  P       28.594    -295.334    -273.325
  C       29.739    -297.540    -274.112
  O       29.887    -296.187    -273.746
  O       27.854    -295.146    -274.740
  O       27.659    -295.963    -272.342
  H       27.195    -295.848    -274.855
  H       30.338    -297.736    -275.004
  H       28.699    -297.807    -274.321
  H       30.114    -298.177    -273.293
  H       30.475    -294.116    -265.316
  H       29.268    -294.002    -266.574
  H       29.341    -292.787    -265.321

 3  4  5  6  7  8  9  10  11  12  13  24  27  28  29  30  32 0
 6-311+G(2d,p)
 ****
 34  35 0
 6-311+G(2d,p)
 ****
 1  2  14  15  16  17  18  19  20  21  22  23  25  26 0
 3-21G
 ****
 31  33  36  37  38  39  40  41  42  43  44  45  46 0
 3-21G
 ****


