%nproc=1
%NoSave
%Mem=1900MB
#P OB98/GEN NMR

erre ene a

0 1
  C     -671.673     994.428     465.840
  O     -670.838     993.735     464.897
  P     -669.286     994.108     464.828
  C     -669.449     995.474     462.623
  O     -668.873     994.331     463.287
  C     -668.959     995.545     461.181
  O     -667.496     995.551     461.137
  C     -669.347     994.337     460.337
  O     -670.726     994.210     460.022
  C     -668.385     994.404     459.195
  O     -668.796     995.310     458.185
  C     -667.099     994.937     459.883
  N     -666.076     993.895     460.119
  C     -664.789     994.354     460.307
  O     -664.466     995.538     460.305
  N     -663.837     993.370     460.525
  C     -664.045     992.036     460.497
  O     -663.174     991.196     460.663
  C     -665.443     991.614     460.256
  C     -666.382     992.546     460.047
  O     -668.355     993.205     465.601
  O     -669.219     995.578     465.419
  H     -669.692     995.052     457.906
  H     -668.437     995.655     465.991
  H     -662.888     993.685     460.695
  H     -665.650     990.549     460.219
  H     -667.409     992.257     459.870
  H     -666.624     995.721     459.280
  H     -668.250     993.422     458.710
  H     -669.088     993.432     460.928
  H     -669.298     996.479     460.726
  H     -669.178     996.390     463.169
  H     -670.545     995.400     462.663
  P     -671.817     993.647     461.052
  C     -671.737     991.117     460.494
  O     -672.468     992.337     460.421
  O     -672.757     994.627     461.674
  O     -670.868     993.030     462.206
  H     -671.329     993.130     463.068
  H     -672.317     990.312     460.009
  H     -671.585     990.827     461.559
  H     -670.776     991.210     459.978
  H     -672.677     994.065     465.762
  H     -671.655     995.477     465.629
  H     -671.309     994.258     466.832

 3  4  5  6  7  8  9  10  11  12  13  23  28  29  30  31  32 0
 6-311+G(2d,p)
 ****
 33  34 0
 6-311+G(2d,p)
 ****
 1  2  14  15  16  17  18  19  20  21  22  24  25  26  27 0
 3-21G
 ****
 35  36  37  38  39  40  41  42  43  44  45 0
 3-21G
 ****


