%nproc=1
%NoSave
%Mem=1900MB
#P OB98/GEN NMR

erre ene a

0 1
  C      343.623    -659.865     578.229
  O      343.154    -658.541     578.129
  H      342.810    -660.498     578.603
  H      344.454    -659.912     578.934
  H      343.934    -660.249     577.254
  P      344.038    -657.451     577.347
  C      345.769    -656.846     579.169
  O      345.519    -657.558     577.960
  C      346.718    -655.676     578.908
  O      346.816    -654.889     580.136
  C      348.147    -656.112     578.512
  O      348.676    -655.155     577.583
  C      348.870    -656.013     579.840
  O      350.260    -655.927     579.670
  C      348.224    -654.760     580.431
  N      348.472    -654.651     581.864
  C      349.684    -654.082     582.248
  O      350.530    -653.678     581.454
  N      349.940    -654.054     583.590
  C      349.163    -654.626     584.557
  O      349.477    -654.638     585.743
  C      347.920    -655.263     584.096
  C      347.640    -655.242     582.791
  O      343.482    -656.069     577.292
  O      344.236    -658.087     575.888
  H      350.479    -655.160     579.111
  H      344.463    -657.394     575.240
  H      350.806    -653.628     583.880
  H      347.294    -655.738     584.834
  H      346.733    -655.718     582.407
  H      348.591    -653.847     579.931
  H      348.657    -656.899     580.456
  H      348.182    -657.118     578.073
  H      346.272    -655.028     578.138
  H      346.221    -657.547     579.882
  H      344.820    -656.481     579.582
  P      348.343    -655.223     576.013
  C      349.612    -657.406     575.549
  O      348.351    -656.756     575.502
  O      349.163    -654.292     575.170
  O      346.793    -654.814     575.917
  H      346.671    -654.173     575.194
  H      349.510    -658.409     575.192
  H      349.968    -657.421     576.558
  H      350.309    -656.877     574.933

 6  7  8  9  10  11  12  13  14  15  16  26  31  32  33  34  35 0
 6-311+G(2d,p)
 ****
 36  37 0
 6-311+G(2d,p)
 ****
 1  2  3  4  5  17  18  19  20  21  22  23  24  25 0
 3-21G
 ****
 27  28  29  30  38  39  40  41  42  43  44  45 0
 3-21G
 ****


