%nproc=1
%NoSave
%Mem=1900MB
#P OB98/GEN NMR

erre ene a

0 1
  C      291.191     302.576     411.873
  O      291.007     303.223     413.116
  H      290.674     303.148     411.098
  H      290.767     301.567     411.904
  H      292.255     302.523     411.616
  P      291.794     302.672     414.399
  C      289.514     302.258     415.540
  O      290.783     301.713     415.191
  C      288.434     301.187     415.390
  O      288.624     300.453     414.157
  C      288.437     300.144     416.498
  O      287.867     300.654     417.686
  C      287.650     299.022     415.841
  O      286.238     299.268     415.928
  C      288.137     299.109     414.376
  N      289.165     298.115     414.060
  C      288.734     296.965     413.407
  O      287.553     296.747     413.132
  N      289.707     296.047     413.113
  C      291.012     296.116     413.494
  O      291.830     295.222     413.281
  C      291.411     297.342     414.201
  C      290.482     298.271     414.445
  O      292.471     303.709     415.235
  O      292.852     301.641     413.777
  H      286.055     300.046     415.367
  H      293.741     302.045     413.785
  H      289.410     295.199     412.655
  H      292.442     297.442     414.507
  H      290.754     299.183     414.971
  H      287.295     298.963     413.686
  H      287.834     298.057     416.310
  H      289.465     299.794     416.681
  H      287.458     301.689     415.334
  H      289.294     303.097     414.868
  H      289.555     302.626     416.572
  P      288.785     300.876     418.979
  C      286.838     300.944     420.658
  O      288.017     300.253     420.240
  O      289.286     302.268     419.170
  O      290.003     299.860     418.766
  H      290.841     300.362     418.722
  H      286.411     300.443     421.502
  H      286.130     300.959     419.856
  H      287.090     301.948     420.929

 6  7  8  9  10  11  12  13  14  15  16  26  31  32  33  34  35 0
 6-311+G(2d,p)
 ****
 36  37 0
 6-311+G(2d,p)
 ****
 1  2  3  4  5  17  18  19  20  21  22  23  24  25 0
 3-21G
 ****
 27  28  29  30  38  39  40  41  42  43  44  45 0
 3-21G
 ****


