%nproc=1
%NoSave
%Mem=1900MB
#P OB98/GEN NMR

erre ene a

0 1
  C      221.817    -139.991       8.768
  O      222.351    -139.989       7.458
  H      220.750    -139.754       8.713
  H      222.309    -139.246       9.394
  H      221.928    -140.984       9.218
  P      223.948    -140.059       7.295
  C      225.967    -139.240       8.683
  O      224.548    -139.312       8.585
  C      226.424    -137.811       8.990
  O      225.793    -137.341      10.200
  C      227.919    -137.685       9.249
  O      228.723    -137.890       8.100
  C      228.012    -136.372      10.006
  O      228.090    -135.231       9.156
  C      226.669    -136.355      10.783
  N      226.864    -136.580      12.211
  C      226.652    -135.472      13.033
  O      226.346    -134.355      12.601
  N      226.849    -135.674      14.369
  C      227.276    -136.840      14.947
  O      227.470    -136.946      16.153
  C      227.501    -137.965      14.028
  C      227.291    -137.785      12.724
  O      224.494    -139.547       5.992
  O      224.291    -141.596       7.578
  H      229.010    -135.170       8.845
  H      225.199    -141.828       7.249
  H      226.691    -134.886      14.978
  H      227.843    -138.903      14.454
  H      227.452    -138.603      12.025
  H      226.173    -135.381      10.662
  H      228.896    -136.347      10.657
  H      228.207    -138.472       9.955
  H      226.109    -137.161       8.168
  H      226.385    -139.550       7.714
  H      226.319    -139.930       9.457
  P      230.204    -138.471       8.157
  C      232.483    -137.768       9.201
  O      231.093    -137.492       9.085
  O      230.788    -138.961       6.881
  O      230.008    -139.748       9.125
  H      230.628    -140.447       8.824
  H      232.938    -137.042       9.842
  H      232.937    -137.724       8.233
  H      232.619    -138.745       9.615

 6  7  8  9  10  11  12  13  14  15  16  26  31  32  33  34  35 0
 6-311+G(2d,p)
 ****
 36  37 0
 6-311+G(2d,p)
 ****
 1  2  3  4  5  17  18  19  20  21  22  23  24  25 0
 3-21G
 ****
 27  28  29  30  38  39  40  41  42  43  44  45 0
 3-21G
 ****


