%nproc=1
%NoSave
%Mem=1900MB
#P OB98/GEN NMR

erre ene a

0 1
  C       40.801     -95.032    -166.411
  O       40.142     -95.662    -167.496
  P       38.759     -96.438    -167.274
  C       37.167     -94.640    -168.181
  O       37.618     -95.330    -167.022
  C       35.996     -95.367    -168.840
  O       34.945     -95.579    -167.852
  C       35.362     -94.622    -170.027
  O       34.924     -95.617    -170.958
  C       34.149     -93.953    -169.393
  O       33.152     -93.595    -170.342
  C       33.729     -95.038    -168.404
  N       28.912     -94.281    -166.832
  C       29.414     -94.775    -167.988
  N       30.713     -94.921    -168.340
  C       31.523     -94.495    -167.356
  C       31.156     -93.942    -166.136
  C       29.774     -93.855    -165.880
  N       29.245     -93.391    -164.693
  N       32.281     -93.574    -165.416
  C       33.300     -93.900    -166.187
  N       32.893     -94.519    -167.335
  O       38.802     -97.534    -166.260
  O       38.397     -97.006    -168.728
  H       33.543     -92.967    -170.978
  H       38.557     -97.970    -168.757
  H       28.682     -95.106    -168.723
  H       34.345     -93.712    -165.964
  H       33.184     -95.852    -168.894
  H       34.466     -93.041    -168.872
  H       36.032     -93.905    -170.512
  H       36.344     -96.359    -169.156
  H       38.004     -94.587    -168.886
  H       28.249     -93.496    -164.562
  H       29.852     -93.313    -163.877
  H       36.874     -93.618    -167.914
  P       34.569     -95.199    -172.469
  C       36.248     -96.603    -173.806
  O       35.929     -95.313    -173.302
  O       33.827     -93.910    -172.615
  O       33.709     -96.448    -173.006
  H       33.209     -96.177    -173.802
  H       36.699     -97.201    -173.005
  H       36.966     -96.501    -174.625
  H       35.354     -97.109    -174.176
  H       41.702     -94.571    -166.760
  H       41.039     -95.762    -165.666
  H       40.160     -94.287    -165.988

 3  4  5  6  7  8  9  10  11  12  22  25  29  30  31  32 0
 6-311+G(2d,p)
 ****
 33  36  37 0
 6-311+G(2d,p)
 ****
 1  2  13  14  15  16  17  18  19  20  21  23  24  26 0
 3-21G
 ****
 27  28  34  35  38  39  40  41  42  43  44  45  46  47  48 0
 3-21G
 ****


