%nproc=1
%NoSave
%Mem=1900MB
#P OB98/GEN NMR

erre ene a

0 1
  C       55.999    -152.641      76.613
  O       54.642    -152.762      76.242
  H       56.173    -153.237      77.512
  H       56.225    -151.596      76.837
  H       56.655    -153.003      75.817
  P       54.231    -152.226      74.789
  C       53.510    -149.844      75.511
  O       54.448    -150.633      74.796
  C       53.915    -148.370      75.471
  O       52.718    -147.556      75.584
  C       54.868    -147.958      76.600
  O       55.822    -147.027      76.083
  C       53.957    -147.259      77.593
  O       54.655    -146.321      78.411
  C       52.927    -146.627      76.664
  N       50.273    -143.052      79.025
  C       51.472    -142.972      78.344
  N       52.058    -141.756      78.290
  N       52.048    -143.993      77.768
  C       51.331    -145.138      77.872
  C       50.137    -145.348      78.522
  C       49.526    -144.215      79.182
  O       48.478    -144.229      79.819
  N       49.747    -146.661      78.431
  C       50.703    -147.241      77.728
  N       51.681    -146.358      77.361
  O       52.638    -152.387      74.779
  O       54.859    -152.942      73.640
  H       54.976    -145.602      77.826
  H       52.378    -153.042      74.104
  H       49.882    -142.237      79.464
  H       50.740    -148.289      77.467
  H       53.273    -145.677      76.240
  H       53.489    -148.001      78.251
  H       51.647    -140.917      78.670
  H       55.392    -148.804      77.049
  H       52.919    -141.664      77.763
  H       54.353    -148.155      74.489
  H       53.479    -150.184      76.551
  H       52.517    -149.969      75.066
  P       57.279    -147.600      75.729
  C       58.512    -147.136      77.959
  O       57.964    -148.115      77.089
  O       58.111    -146.282      75.363
  O       57.286    -148.579      74.602
  H       58.274    -146.249      74.403
  H       58.932    -147.617      78.818
  H       57.741    -146.462      78.269
  H       59.277    -146.591      77.446

 6  7  8  9  10  11  12  13  14  15  26  29  33  34 0
 6-311+G(2d,p)
 ****
 36  38  39  40  41 0
 6-311+G(2d,p)
 ****
 1  2  3  4  5  16  17  18  19  20  21  22  23  24  25 0
 3-21G
 ****
 27  28  30  31  32  35  37  42  43  44  45  46  47 0
 3-21G
 ****
 48  49 0
 3-21G
 ****


