%nproc=1
%NoSave
%Mem=1900MB
#P OB98/GEN NMR

erre ene a

0 1
  C     2896.847    -938.909     136.378
  O     2896.607    -937.486     136.490
  P     2897.239    -936.734     137.751
  C     2898.855    -934.835     136.936
  O     2898.688    -936.206     137.336
  C     2899.410    -934.787     135.504
  O     2898.567    -935.470     134.548
  C     2899.553    -933.359     134.975
  O     2900.735    -932.755     135.410
  C     2899.628    -933.628     133.463
  O     2900.947    -934.043     133.106
  C     2898.634    -934.802     133.279
  N     2895.804    -932.832     129.493
  C     2897.129    -933.126     129.566
  N     2897.802    -933.636     130.636
  C     2896.984    -933.853     131.658
  C     2895.597    -933.622     131.737
  C     2895.005    -933.083     130.551
  N     2893.668    -932.811     130.475
  N     2895.079    -933.977     132.952
  C     2896.137    -934.436     133.632
  N     2897.290    -934.382     132.899
  O     2897.557    -937.908     138.792
  O     2896.335    -935.698     138.352
  H     2901.585    -933.514     133.608
  H     2897.420    -937.589     139.707
  H     2897.701    -932.907     128.686
  H     2896.115    -934.808     134.642
  H     2898.976    -935.516     132.520
  H     2899.397    -932.725     132.878
  H     2898.653    -932.751     135.206
  H     2900.386    -935.274     135.501
  H     2899.520    -934.312     137.626
  H     2893.289    -932.467     129.635
  H     2893.092    -933.023     131.282
  H     2897.883    -934.329     137.017
  P     2900.633    -931.752     136.672
  C     2902.930    -932.332     137.714
  O     2901.519    -932.377     137.830
  O     2899.114    -931.972     137.197
  O     2900.884    -930.305     136.346
  H     2898.762    -931.191     137.594
  H     2903.380    -932.521     138.680
  H     2903.250    -931.317     137.379
  H     2903.306    -933.033     136.995
  H     2896.371    -939.283     135.495
  H     2896.447    -939.407     137.237
  H     2897.900    -939.090     136.319

 3  4  5  6  7  8  9  10  11  12  22  25  29  30  31  32 0
 6-311+G(2d,p)
 ****
 33  36  37 0
 6-311+G(2d,p)
 ****
 1  2  13  14  15  16  17  18  19  20  21  23  24  26 0
 3-21G
 ****
 27  28  34  35  38  39  40  41  42  43  44  45  46  47  48 0
 3-21G
 ****


