%nproc=1
%NoSave
%Mem=1900MB
#P OB98/GEN NMR

erre ene a

0 1
  C       84.516    -288.569    -114.521
  O       84.403    -288.031    -113.219
  H       84.080    -287.883    -115.251
  H       85.574    -288.708    -114.755
  H       84.013    -289.540    -114.574
  P       82.915    -287.779    -112.672
  C       82.742    -290.168    -111.672
  O       82.218    -289.224    -112.594
  C       81.605    -290.938    -111.008
  O       82.130    -292.054    -110.260
  C       80.778    -290.128    -110.014
  O       79.823    -289.306    -110.670
  C       80.109    -291.243    -109.228
  O       78.994    -291.765    -109.975
  C       81.228    -292.293    -109.149
  N       81.610    -294.133    -104.388
  C       80.788    -294.446    -105.415
  N       80.762    -293.929    -106.658
  C       81.722    -293.000    -106.803
  C       82.646    -292.589    -105.861
  C       82.568    -293.194    -104.598
  N       83.372    -292.815    -103.533
  N       83.468    -291.605    -106.377
  C       83.028    -291.412    -107.603
  N       81.979    -292.238    -107.910
  O       82.194    -287.073    -113.918
  O       82.825    -286.948    -111.437
  H       78.349    -291.037    -110.055
  H       82.205    -286.107    -113.789
  H       80.050    -295.215    -105.205
  H       83.435    -290.689    -108.301
  H       80.846    -293.313    -109.258
  H       79.724    -290.912    -108.258
  H       81.418    -289.548    -109.341
  H       80.966    -291.347    -111.803
  H       83.321    -289.643    -110.905
  H       82.937    -292.951    -102.624
  H       83.869    -291.944    -103.674
  H       83.403    -290.854    -112.210
  P       78.832    -288.438    -109.754
  C       79.473    -286.227    -110.935
  O       79.439    -286.950    -109.711
  O       79.117    -289.007    -108.285
  O       77.389    -288.540    -110.103
  H       78.282    -289.318    -107.883
  H       79.897    -285.259    -110.766
  H       78.478    -286.119    -111.313
  H       80.069    -286.759    -111.647

 6  7  8  9  10  11  12  13  14  15  25  28  32  33  34  35 0
 6-311+G(2d,p)
 ****
 36  39  40 0
 6-311+G(2d,p)
 ****
 1  2  3  4  5  16  17  18  19  20  21  22  23  24 0
 3-21G
 ****
 26  27  29  30  31  37  38  41  42  43  44  45  46  47  48 0
 3-21G
 ****


