%nproc=1
%NoSave
%Mem=1900MB
#P OB98/GEN NMR

erre ene a

0 1
  C     -725.605    -567.445    3069.411
  O     -725.425    -566.428    3068.435
  H     -726.410    -568.111    3069.088
  H     -725.881    -566.994    3070.363
  H     -724.679    -568.026    3069.540
  P     -724.226    -565.387    3068.685
  C     -722.812    -566.014    3066.599
  O     -722.920    -566.049    3068.010
  C     -722.646    -567.413    3066.017
  O     -723.792    -568.237    3066.384
  C     -722.504    -567.482    3064.485
  O     -721.568    -568.536    3064.155
  C     -723.887    -567.899    3064.036
  O     -723.893    -568.496    3062.739
  C     -724.268    -568.865    3065.162
  N     -727.925    -571.672    3063.164
  C     -726.584    -571.681    3062.944
  N     -726.120    -572.584    3062.045
  N     -725.707    -570.882    3063.540
  C     -726.335    -570.055    3064.443
  C     -727.632    -569.943    3064.769
  C     -728.604    -570.813    3064.031
  O     -729.799    -570.830    3064.196
  N     -727.862    -568.974    3065.679
  C     -726.655    -568.487    3065.969
  N     -725.690    -569.128    3065.205
  O     -723.954    -565.531    3070.267
  O     -724.512    -563.988    3068.284
  H     -723.644    -567.826    3062.084
  H     -724.462    -564.861    3070.753
  H     -728.552    -572.317    3062.674
  H     -726.442    -567.708    3066.652
  H     -723.761    -569.841    3065.047
  H     -724.562    -567.018    3064.005
  H     -726.689    -573.245    3061.587
  H     -722.157    -566.560    3064.028
  H     -725.123    -572.633    3061.907
  H     -721.751    -567.888    3066.504
  H     -721.943    -565.401    3066.305
  H     -723.733    -565.533    3066.152
  P     -720.378    -568.202    3063.144
  C     -718.359    -568.662    3064.773
  O     -719.106    -567.718    3063.989
  O     -720.865    -566.848    3062.435
  O     -720.103    -569.310    3062.168
  H     -720.505    -566.780    3061.506
  H     -717.552    -568.159    3065.263
  H     -717.968    -569.426    3064.134
  H     -719.001    -569.104    3065.506

 6  7  8  9  10  11  12  13  14  15  26  29  33  34 0
 6-311+G(2d,p)
 ****
 36  38  39  40  41 0
 6-311+G(2d,p)
 ****
 1  2  3  4  5  16  17  18  19  20  21  22  23  24  25 0
 3-21G
 ****
 27  28  30  31  32  35  37  42  43  44  45  46  47 0
 3-21G
 ****
 48  49 0
 3-21G
 ****


