%nproc=1
%NoSave
%Mem=1900MB
#P OB98/GEN NMR

erre ene a

0 1
  C      -82.413    -520.716      75.086
  O      -83.091    -521.376      76.134
  H      -83.147    -520.188      74.474
  H      -81.897    -521.447      74.460
  H      -81.696    -519.988      75.475
  P      -82.237    -521.986      77.346
  C      -83.337    -521.003      79.460
  O      -83.244    -522.119      78.588
  C      -82.814    -521.355      80.856
  O      -83.778    -522.233      81.510
  C      -81.461    -522.083      80.850
  O      -80.775    -521.721      82.054
  C      -81.892    -523.535      80.906
  O      -80.832    -524.374      81.305
  C      -83.083    -523.443      81.864
  N      -83.950    -524.618      81.793
  C      -84.165    -525.307      82.981
  O      -83.642    -524.987      84.048
  N      -84.970    -526.407      82.900
  C      -85.519    -526.912      81.757
  O      -86.207    -527.925      81.739
  C      -85.221    -526.169      80.523
  C      -84.463    -525.071      80.594
  O      -80.957    -521.284      77.653
  O      -81.996    -523.513      76.929
  H      -81.181    -525.244      81.599
  H      -81.150    -523.832      77.300
  H      -85.146    -526.910      83.755
  H      -85.632    -526.549      79.597
  H      -84.228    -524.502      79.702
  H      -82.738    -523.343      82.902
  H      -82.222    -523.877      79.919
  H      -80.850    -521.849      79.976
  H      -82.766    -520.437      81.455
  H      -84.390    -520.708      79.522
  H      -82.758    -520.168      79.049
  P      -79.314    -521.058      82.038
  C      -80.170    -519.685      84.043
  O      -79.055    -520.348      83.454
  O      -79.053    -520.181      80.858
  O      -78.304    -522.298      82.055
  H      -77.468    -522.049      81.617
  H      -79.876    -519.254      84.977
  H      -80.958    -520.390      84.208
  H      -80.514    -518.913      83.386

 6  7  8  9  10  11  12  13  14  15  16  26  31  32  33  34  35 0
 6-311+G(2d,p)
 ****
 36  37 0
 6-311+G(2d,p)
 ****
 1  2  3  4  5  17  18  19  20  21  22  23  24  25 0
 3-21G
 ****
 27  28  29  30  38  39  40  41  42  43  44  45 0
 3-21G
 ****


