%nproc=1
%NoSave
%Mem=1900MB
#P OB98/GEN NMR

erre ene a

0 1
  C     -302.414     -28.129    -409.468
  O     -303.520     -27.224    -409.402
  P     -303.676     -25.965    -410.380
  C     -306.207     -25.519    -410.156
  O     -304.897     -25.048    -409.882
  C     -307.278     -24.533    -409.684
  O     -307.304     -24.454    -408.245
  C     -307.078     -23.096    -410.167
  O     -307.439     -22.954    -411.529
  C     -307.964     -22.334    -409.184
  O     -309.340     -22.362    -409.600
  C     -307.768     -23.132    -407.885
  N     -306.843     -22.488    -406.961
  C     -307.372     -22.102    -405.722
  O     -308.576     -22.246    -405.487
  N     -306.531     -21.517    -404.801
  C     -305.294     -21.285    -405.112
  N     -304.514     -20.722    -404.153
  C     -304.717     -21.609    -406.431
  C     -305.543     -22.201    -407.296
  O     -303.743     -26.323    -411.826
  O     -302.384     -25.054    -410.082
  H     -309.509     -23.262    -409.935
  H     -302.139     -24.581    -410.902
  H     -303.691     -21.373    -406.662
  H     -305.196     -22.474    -408.285
  H     -308.730     -23.281    -407.374
  H     -307.674     -21.283    -409.093
  H     -306.031     -22.802    -410.009
  H     -308.254     -24.909    -410.022
  H     -304.934     -20.522    -403.258
  H     -306.350     -26.478    -409.630
  H     -303.527     -20.500    -404.287
  H     -306.302     -25.699    -411.234
  P     -306.452     -22.185    -412.532
  C     -306.959     -23.567    -414.640
  O     -307.082     -22.309    -414.002
  O     -305.006     -22.545    -412.430
  O     -306.682     -20.642    -412.180
  H     -305.850     -20.154    -412.337
  H     -307.735     -23.645    -415.416
  H     -307.070     -24.383    -413.923
  H     -305.980     -23.643    -415.119
  H     -302.527     -28.886    -408.720
  H     -301.504     -27.593    -409.298
  H     -302.384     -28.585    -410.435

 3  4  5  6  7  8  9  10  11  12  13  23  27  28  29  30  32 0
 6-311+G(2d,p)
 ****
 34  35 0
 6-311+G(2d,p)
 ****
 1  2  14  15  16  17  18  19  20  21  22  24  25  26 0
 3-21G
 ****
 31  33  36  37  38  39  40  41  42  43  44  45  46 0
 3-21G
 ****


