%nproc=1
%NoSave
%Mem=1900MB
#P OB98/GEN NMR

erre ene a

0 1
  C      125.832     -96.881    -194.049
  O      125.510     -98.252    -194.023
  P      124.040     -98.752    -194.420
  C      125.083    -100.530    -195.962
  O      124.173     -99.438    -195.865
  C      124.334    -101.806    -196.338
  O      123.701    -101.674    -197.636
  C      125.224    -103.029    -196.476
  O      125.854    -103.512    -195.310
  C      124.301    -103.988    -197.212
  O      123.391    -104.624    -196.317
  C      123.543    -103.021    -198.157
  N      124.010    -103.128    -199.537
  C      123.682    -104.303    -200.200
  O      123.041    -105.219    -199.688
  N      124.147    -104.414    -201.482
  C      124.930    -103.505    -202.133
  O      125.350    -103.691    -203.270
  C      125.256    -102.290    -201.376
  C      124.790    -102.154    -200.131
  O      122.969     -97.719    -194.319
  O      123.812    -100.018    -193.466
  H      122.814    -105.205    -196.848
  H      124.458    -100.738    -193.582
  H      123.933    -105.266    -201.979
  H      125.865    -101.541    -201.869
  H      125.019    -101.266    -199.554
  H      122.468    -103.239    -198.142
  H      124.858    -104.780    -197.723
  H      126.042    -102.782    -197.168
  H      123.538    -101.964    -195.606
  H      125.568    -100.674    -194.992
  H      125.861    -100.293    -196.696
  P      127.445    -103.570    -195.125
  C      127.376    -101.705    -193.328
  O      127.937    -102.163    -194.539
  O      128.229    -104.159    -196.250
  O      127.583    -104.526    -193.841
  H      128.415    -105.031    -193.908
  H      127.790    -100.717    -193.101
  H      127.631    -102.386    -192.508
  H      126.291    -101.616    -193.416
  H      126.852     -96.749    -193.754
  H      125.194     -96.352    -193.373
  H      125.695     -96.501    -195.040

 3  4  5  6  7  8  9  10  11  12  13  23  28  29  30  31  32 0
 6-311+G(2d,p)
 ****
 33  34 0
 6-311+G(2d,p)
 ****
 1  2  14  15  16  17  18  19  20  21  22  24  25  26  27 0
 3-21G
 ****
 35  36  37  38  39  40  41  42  43  44  45 0
 3-21G
 ****


