%nproc=1
%NoSave
%Mem=1900MB
#P OB98/GEN NMR

erre ene a

0 1
  C     -102.154     101.781    -195.204
  O     -101.133     102.503    -194.548
  H     -102.142     100.751    -194.839
  H     -101.977     101.771    -196.282
  H     -103.135     102.214    -194.993
  P     -101.039     104.086    -194.777
  C      -98.836     104.475    -196.056
  O     -100.246     104.313    -196.151
  C      -98.144     103.129    -196.258
  O      -98.801     102.389    -197.312
  C      -96.688     103.244    -196.691
  O      -95.852     103.608    -195.610
  C      -96.447     101.855    -197.254
  O      -96.157     100.916    -196.212
  C      -97.805     101.533    -197.916
  N      -97.765     101.713    -199.367
  C      -96.987     100.805    -200.077
  O      -96.364      99.887    -199.550
  N      -96.896     101.027    -201.425
  C      -97.380     102.120    -202.086
  O      -97.066     102.402    -203.237
  C      -98.244     103.009    -201.297
  C      -98.385     102.777    -199.992
  O     -100.537     104.878    -193.616
  O     -102.539     104.500    -195.160
  H     -102.968     104.903    -194.382
  H      -95.350     101.250    -195.769
  H      -96.298     100.396    -201.941
  H      -98.706     103.849    -201.803
  H      -98.991     103.440    -199.380
  H      -98.102     100.500    -197.700
  H      -95.609     101.845    -197.953
  H      -96.599     103.977    -197.501
  H      -98.232     102.552    -195.330
  H      -98.593     104.863    -195.061
  H      -98.508     105.197    -196.810
  P      -94.443     104.319    -195.883
  C      -92.479     102.842    -195.131
  O      -93.358     103.181    -196.197
  O      -94.024     105.316    -194.855
  O      -94.635     105.025    -197.309
  H      -94.349     105.956    -197.239
  H      -91.804     102.077    -195.455
  H      -93.049     102.486    -194.298
  H      -91.923     103.708    -194.838

 6  7  8  9  10  11  12  13  14  15  16  27  31  32  33  34  35 0
 6-311+G(2d,p)
 ****
 36  37 0
 6-311+G(2d,p)
 ****
 1  2  3  4  5  17  18  19  20  21  22  23  24  25 0
 3-21G
 ****
 26  28  29  30  38  39  40  41  42  43  44  45 0
 3-21G
 ****


