%nproc=1
%NoSave
%Mem=1900MB
#P OB98/GEN NMR

erre ene a

0 1
  C     -252.038     484.425      98.341
  O     -252.269     483.016      98.430
  P     -251.506     482.090      97.360
  C     -253.069     481.874      95.293
  O     -251.966     482.544      95.891
  C     -253.238     482.324      93.844
  O     -253.721     483.690      93.761
  C     -251.938     482.309      93.052
  O     -251.569     480.984      92.706
  C     -252.313     483.195      91.864
  O     -253.083     482.452      90.900
  C     -253.205     484.260      92.531
  N     -251.880     488.853      90.712
  C     -252.589     487.837      90.169
  N     -252.895     486.643      90.720
  C     -252.400     486.550      91.967
  C     -251.664     487.504      92.651
  C     -251.398     488.704      91.971
  N     -250.664     489.739      92.516
  N     -251.333     487.053      93.909
  C     -251.831     485.837      93.974
  N     -252.504     485.491      92.832
  O     -252.195     480.661      97.553
  O     -250.030     482.029      97.570
  H     -253.295     483.058      90.163
  H     -251.573     480.045      97.989
  H     -252.951     487.996      89.158
  H     -251.745     485.169      94.825
  H     -254.071     484.519      91.910
  H     -251.445     483.601      91.343
  H     -251.131     482.779      93.629
  H     -253.976     481.669      93.366
  H     -253.985     482.079      95.857
  H     -250.454     490.526      91.931
  H     -250.227     489.601      93.418
  H     -252.902     480.795      95.358
  P     -250.387     480.295      93.546
  C     -248.277     481.131      92.344
  O     -249.167     481.341      93.424
  O     -249.946     479.117      92.565
  O     -250.755     479.890      94.931
  H     -249.849     479.427      91.643
  H     -247.521     481.924      92.356
  H     -248.813     481.163      91.388
  H     -247.776     480.164      92.454
  H     -252.598     484.927      99.102
  H     -252.348     484.777      97.379
  H     -250.995     484.625      98.475

 3  4  5  6  7  8  9  10  11  12  22  25  29  30  31  32 0
 6-311+G(2d,p)
 ****
 33  36  37 0
 6-311+G(2d,p)
 ****
 1  2  13  14  15  16  17  18  19  20  21  23  24  26 0
 3-21G
 ****
 27  28  34  35  38  39  40  41  42  43  44  45  46  47  48 0
 3-21G
 ****


