%nproc=1
%NoSave
%Mem=1900MB
#P OB98/GEN NMR

erre ene a

0 1
  C     -244.499     578.898    -312.184
  O     -244.291     580.220    -311.713
  P     -245.124     581.411    -312.387
  C     -244.585     583.058    -314.336
  O     -244.437     581.750    -313.800
  C     -244.426     583.034    -315.855
  O     -243.032     582.766    -316.196
  C     -245.274     581.969    -316.559
  O     -245.672     582.488    -317.834
  C     -244.287     580.833    -316.764
  O     -244.691     579.910    -317.760
  C     -243.035     581.635    -317.098
  N     -241.801     580.850    -316.973
  C     -241.433     580.059    -318.056
  O     -242.073     579.979    -319.108
  N     -240.312     579.290    -317.881
  C     -239.603     579.168    -316.731
  O     -238.677     578.361    -316.598
  C     -240.030     580.021    -315.616
  C     -241.089     580.818    -315.777
  O     -244.762     582.682    -311.477
  O     -246.607     581.184    -312.460
  H     -245.486     579.457    -317.430
  H     -245.475     582.857    -310.845
  H     -240.023     578.716    -318.660
  H     -239.464     579.969    -314.691
  H     -241.445     581.441    -314.973
  H     -243.098     582.045    -318.110
  H     -244.169     580.277    -315.819
  H     -246.160     581.662    -315.988
  H     -244.666     584.032    -316.243
  H     -243.822     583.708    -313.904
  H     -245.565     583.464    -314.050
  P     -247.177     582.215    -318.337
  C     -248.424     580.106    -319.254
  O     -247.305     580.640    -318.573
  O     -247.119     582.828    -319.814
  O     -248.222     582.856    -317.470
  H     -246.295     582.585    -320.290
  H     -248.770     580.787    -320.040
  H     -249.230     579.930    -318.549
  H     -248.140     579.158    -319.713
  H     -243.874     578.222    -311.638
  H     -244.255     578.848    -313.225
  H     -245.525     578.627    -312.045

 3  4  5  6  7  8  9  10  11  12  13  23  28  29  30  31  32 0
 6-311+G(2d,p)
 ****
 33  34 0
 6-311+G(2d,p)
 ****
 1  2  14  15  16  17  18  19  20  21  22  24  25  26 0
 3-21G
 ****
 27  35  36  37  38  39  40  41  42  43  44  45 0
 3-21G
 ****


