%nproc=1
%NoSave
%Mem=1900MB
#P OB98/GEN NMR

erre ene a

0 1
  C     -830.747    -464.765     -15.485
  O     -830.748    -464.251     -16.801
  P     -829.332    -463.880     -17.460
  C     -830.476    -461.618     -18.143
  O     -829.326    -462.293     -17.654
  C     -830.732    -460.346     -17.317
  O     -830.747    -460.668     -15.913
  C     -829.668    -459.264     -17.476
  O     -829.820    -458.553     -18.695
  C     -829.913    -458.437     -16.216
  O     -831.035    -457.544     -16.417
  C     -830.280    -459.520     -15.182
  N     -829.168    -459.866     -14.298
  C     -829.275    -459.427     -12.980
  O     -830.234    -458.790     -12.555
  N     -828.205    -459.735     -12.163
  C     -827.067    -460.366     -12.545
  O     -826.126    -460.579     -11.790
  C     -826.993    -460.768     -13.965
  C     -828.032    -460.518     -14.757
  O     -829.521    -464.474     -18.932
  O     -828.173    -464.445     -16.696
  H     -830.461    -464.487     -19.195
  H     -830.712    -456.809     -16.966
  H     -828.270    -459.452     -11.200
  H     -826.098    -461.271     -14.305
  H     -828.000    -460.793     -15.801
  H     -831.121    -459.180     -14.570
  H     -829.053    -457.819     -15.946
  H     -828.676    -459.718     -17.423
  H     -831.729    -459.969     -17.588
  H     -831.347    -462.282     -18.072
  H     -830.318    -461.363     -19.200
  P     -828.634    -458.731     -19.763
  C     -828.385    -456.147     -20.033
  O     -827.771    -457.374     -19.723
  O     -829.453    -458.633     -21.154
  O     -827.848    -459.993     -19.608
  H     -830.124    -457.939     -21.138
  H     -827.777    -455.343     -19.616
  H     -829.407    -456.082     -19.616
  H     -828.439    -456.017     -21.111
  H     -831.753    -464.965     -15.179
  H     -830.309    -464.048     -14.822
  H     -830.179    -465.671     -15.456

 3  4  5  6  7  8  9  10  11  12  13  24  28  29  30  31  32 0
 6-311+G(2d,p)
 ****
 33  34 0
 6-311+G(2d,p)
 ****
 1  2  14  15  16  17  18  19  20  21  22  23  25  26  27 0
 3-21G
 ****
 35  36  37  38  39  40  41  42  43  44  45 0
 3-21G
 ****


