%nproc=1
%NoSave
%Mem=1900MB
#P OB98/GEN NMR

erre ene a

0 1
  C     -284.376      72.272      62.233
  O     -284.067      71.277      61.276
  H     -283.550      72.340      62.946
  H     -285.287      72.000      62.773
  H     -284.507      73.242      61.746
  P     -285.068      71.130      60.036
  C     -283.374      69.852      58.488
  O     -284.605      69.837      59.201
  C     -283.081      68.462      57.928
  O     -282.713      67.543      58.976
  C     -284.277      67.799      57.267
  O     -284.620      68.391      56.035
  C     -283.768      66.370      57.147
  O     -282.877      66.231      56.032
  C     -283.002      66.207      58.484
  N     -283.743      65.420      59.458
  C     -283.945      64.073      59.128
  O     -283.498      63.619      58.076
  N     -284.672      63.288      59.988
  C     -285.135      63.791      61.088
  N     -285.854      62.964      61.891
  C     -284.924      65.197      61.487
  C     -284.231      65.947      60.631
  O     -284.628      72.339      59.086
  O     -286.519      71.115      60.386
  H     -283.362      66.559      55.250
  H     -283.679      72.346      58.879
  H     -285.321      65.571      62.419
  H     -284.032      66.989      60.846
  H     -282.035      65.716      58.315
  H     -284.579      65.656      56.996
  H     -285.133      67.793      57.954
  H     -282.235      68.548      57.234
  H     -285.997      62.012      61.576
  H     -282.556      70.191      59.129
  H     -286.291      63.252      62.754
  H     -283.475      70.575      57.672
  P     -286.059      69.064      55.825
  C     -285.239      71.145      54.551
  O     -285.963      69.921      54.470
  O     -286.585      69.819      57.000
  O     -286.980      67.832      55.381
  H     -286.694      67.383      54.565
  H     -285.242      71.625      53.595
  H     -284.230      70.944      54.845
  H     -285.701      71.785      55.273

 6  7  8  9  10  11  12  13  14  15  16  26  30  31  32  33  35 0
 6-311+G(2d,p)
 ****
 37  38 0
 6-311+G(2d,p)
 ****
 1  2  3  4  5  17  18  19  20  21  22  23  24  25 0
 3-21G
 ****
 27  28  29  34  36  39  40  41  42  43  44  45  46 0
 3-21G
 ****


