%nproc=1
%NoSave
%Mem=1900MB
#P OB98/GEN NMR

erre ene a

0 1
  C      -77.764      57.352    -282.039
  O      -76.758      57.624    -283.001
  P      -75.736      58.824    -282.694
  C      -76.910      60.682    -284.142
  O      -76.587      60.173    -282.858
  C      -76.841      62.211    -284.135
  O      -77.748      62.739    -283.144
  C      -75.475      62.783    -283.780
  O      -74.570      62.703    -284.870
  C      -75.847      64.202    -283.366
  O      -76.032      65.029    -284.528
  C      -77.197      63.979    -282.652
  N      -77.083      63.966    -281.196
  C      -77.677      65.030    -280.524
  O      -78.271      65.941    -281.097
  N      -77.547      65.020    -279.160
  C      -76.844      64.111    -278.426
  O      -76.723      64.173    -277.209
  C      -76.211      63.029    -279.195
  C      -76.357      63.006    -280.521
  O      -74.813      58.763    -283.999
  O      -75.016      58.665    -281.399
  H      -75.291      58.395    -284.763
  H      -76.306      65.907    -284.201
  H      -77.989      65.769    -278.648
  H      -75.637      62.291    -278.647
  H      -75.889      62.222    -281.104
  H      -77.909      64.763    -282.936
  H      -75.080      64.675    -282.745
  H      -75.060      62.247    -282.918
  H      -77.165      62.573    -285.120
  H      -77.920      60.362    -284.409
  H      -76.208      60.271    -284.874
  P      -73.050      63.146    -284.576
  C      -72.848      65.427    -285.836
  O      -73.037      64.747    -284.615
  O      -72.332      62.709    -285.937
  O      -72.473      62.528    -283.345
  H      -72.855      62.925    -286.727
  H      -73.217      66.449    -285.729
  H      -73.387      64.940    -286.652
  H      -71.782      65.460    -286.075
  H      -78.366      56.534    -282.374
  H      -78.379      58.218    -281.911
  H      -77.306      57.099    -281.106

 3  4  5  6  7  8  9  10  11  12  13  24  28  29  30  31  32 0
 6-311+G(2d,p)
 ****
 33  34 0
 6-311+G(2d,p)
 ****
 1  2  14  15  16  17  18  19  20  21  22  23  25  26  27 0
 3-21G
 ****
 35  36  37  38  39  40  41  42  43  44  45 0
 3-21G
 ****


