%nproc=1
%NoSave
%Mem=1900MB
#P OB98/GEN NMR

erre ene a

0 1
  C      133.330    -119.758      72.893
  O      133.302    -121.097      72.442
  H      132.780    -119.136      72.182
  H      134.362    -119.401      72.950
  H      132.854    -119.680      73.874
  P      134.113    -122.162      73.327
  C      132.198    -123.904      73.450
  O      133.501    -123.603      72.971
  C      132.110    -125.369      73.871
  O      131.916    -126.220      72.720
  C      133.343    -125.889      74.600
  O      133.293    -125.561      75.978
  C      133.227    -127.385      74.347
  O      132.278    -127.991      75.250
  C      132.706    -127.427      72.903
  N      135.380    -130.559      69.984
  C      134.460    -130.833      70.976
  N      134.236    -132.137      71.252
  N      133.821    -129.913      71.648
  C      134.185    -128.654      71.308
  C      135.084    -128.253      70.347
  C      135.743    -129.283      69.573
  O      136.505    -129.104      68.627
  N      135.168    -126.885      70.285
  C      134.348    -126.464      71.229
  N      133.732    -127.500      71.881
  O      133.580    -121.893      74.814
  O      135.598    -122.054      73.259
  H      132.700    -128.116      76.118
  H      134.325    -121.995      75.436
  H      135.818    -131.308      69.479
  H      134.160    -125.427      71.470
  H      132.037    -128.278      72.735
  H      134.177    -127.895      74.512
  H      134.889    -132.859      70.987
  H      134.263    -125.513      74.136
  H      133.617    -132.332      72.029
  H      131.217    -125.475      74.501
  H      131.475    -123.711      72.652
  H      131.970    -123.260      74.304
  P      134.674    -125.278      76.739
  C      133.489    -124.098      78.725
  O      134.355    -125.142      78.307
  O      135.025    -123.781      76.296
  O      135.781    -126.213      76.390
  H      135.748    -123.790      75.641
  H      133.373    -124.135      79.788
  H      132.534    -124.218      78.258
  H      133.907    -123.154      78.445

 6  7  8  9  10  11  12  13  14  15  26  29  33  34 0
 6-311+G(2d,p)
 ****
 36  38  39  40  41 0
 6-311+G(2d,p)
 ****
 1  2  3  4  5  16  17  18  19  20  21  22  23  24  25 0
 3-21G
 ****
 27  28  30  31  32  35  37  42  43  44  45  46  47 0
 3-21G
 ****
 48  49 0
 3-21G
 ****


