%nproc=1
%NoSave
%Mem=1900MB
#P OB98/GEN NMR

erre ene a

0 1
  C     -425.220    -580.746    -408.322
  O     -425.238    -579.970    -407.117
  P     -424.006    -579.086    -406.616
  C     -425.589    -577.712    -405.101
  O     -424.379    -578.455    -405.179
  C     -426.338    -578.022    -403.802
  O     -427.070    -579.271    -403.930
  C     -425.455    -578.257    -402.576
  O     -424.900    -577.051    -402.088
  C     -426.433    -578.937    -401.619
  O     -427.221    -577.978    -400.909
  C     -427.319    -579.749    -402.594
  N     -427.100    -581.183    -402.484
  C     -427.864    -581.872    -401.543
  O     -428.620    -581.258    -400.786
  N     -427.750    -583.245    -401.474
  C     -426.860    -583.849    -402.199
  N     -426.805    -585.210    -402.102
  C     -425.938    -583.159    -403.113
  C     -426.114    -581.831    -403.212
  O     -423.533    -578.069    -407.611
  O     -422.839    -580.148    -406.278
  H     -421.968    -579.704    -406.368
  H     -427.688    -578.471    -400.200
  H     -425.192    -583.694    -403.682
  H     -425.488    -581.228    -403.865
  H     -428.372    -579.528    -402.389
  H     -425.913    -579.552    -400.875
  H     -424.645    -578.960    -402.842
  H     -427.053    -577.217    -403.605
  H     -427.455    -585.663    -401.479
  H     -426.228    -577.989    -405.951
  H     -426.169    -585.785    -402.651
  H     -425.358    -576.637    -405.171
  P     -423.296    -576.898    -402.186
  C     -423.263    -574.277    -402.152
  O     -422.917    -575.485    -401.503
  O     -423.045    -576.625    -403.749
  O     -422.521    -578.067    -401.697
  H     -422.237    -577.086    -404.030
  H     -423.380    -573.499    -401.399
  H     -424.188    -574.380    -402.711
  H     -422.443    -573.993    -402.825
  H     -426.159    -581.247    -408.438
  H     -424.434    -581.470    -408.268
  H     -425.054    -580.101    -409.159

 3  4  5  6  7  8  9  10  11  12  13  24  27  28  29  30  32 0
 6-311+G(2d,p)
 ****
 34  35 0
 6-311+G(2d,p)
 ****
 1  2  14  15  16  17  18  19  20  21  22  23  25  26 0
 3-21G
 ****
 31  33  36  37  38  39  40  41  42  43  44  45  46 0
 3-21G
 ****


