%nproc=1
%NoSave
%Mem=1900MB
#P OB98/GEN NMR

erre ene a

0 1
  C      -89.296    -847.490    1120.836
  O      -90.092    -847.178    1119.721
  P      -89.564    -846.093    1118.633
  C      -91.984    -845.802    1117.737
  O      -90.806    -845.152    1118.242
  C      -93.224    -844.958    1117.962
  O      -93.523    -844.841    1119.387
  C      -93.079    -843.518    1117.462
  O      -93.146    -843.458    1116.055
  C      -94.273    -842.870    1118.175
  O      -95.519    -843.125    1117.503
  C      -94.250    -843.591    1119.553
  N      -93.675    -842.786    1120.617
  C      -94.514    -841.853    1121.196
  O      -95.655    -841.683    1120.757
  N      -94.057    -841.093    1122.276
  C      -92.794    -841.215    1122.628
  N      -92.389    -840.501    1123.725
  C      -91.805    -842.062    1121.924
  C      -92.314    -842.837    1120.936
  O      -88.816    -846.640    1117.458
  O      -88.626    -845.100    1119.499
  H      -87.777    -844.995    1119.027
  H      -95.605    -844.114    1117.452
  H      -90.764    -842.047    1122.204
  H      -91.696    -843.489    1120.378
  H      -95.286    -843.872    1119.854
  H      -94.154    -841.782    1118.273
  H      -92.159    -843.077    1117.817
  H      -94.086    -845.470    1117.473
  H      -93.085    -839.916    1124.187
  H      -92.096    -846.764    1118.247
  H      -91.556    -840.751    1124.267
  H      -91.855    -846.028    1116.658
  P      -92.435    -842.201    1115.353
  C      -93.399    -842.872    1113.065
  O      -93.220    -841.853    1114.027
  O      -91.032    -842.806    1114.836
  O      -92.187    -841.019    1116.296
  H      -90.306    -842.171    1114.947
  H      -94.245    -842.610    1112.403
  H      -93.658    -843.830    1113.562
  H      -92.508    -843.010    1112.453
  H      -89.797    -848.217    1121.440
  H      -89.126    -846.604    1121.412
  H      -88.359    -847.886    1120.505

 3  4  5  6  7  8  9  10  11  12  13  24  27  28  29  30  32 0
 6-311+G(2d,p)
 ****
 34  35 0
 6-311+G(2d,p)
 ****
 1  2  14  15  16  17  18  19  20  21  22  23  25  26 0
 3-21G
 ****
 31  33  36  37  38  39  40  41  42  43  44  45  46 0
 3-21G
 ****


