%nproc=1
%NoSave
%Mem=1900MB
#P OB98/GEN NMR

erre ene a

0 1
  C      240.736     303.180    -568.594
  O      240.221     301.866    -568.739
  P      239.481     301.113    -567.523
  C      241.529     299.766    -566.702
  O      240.269     299.725    -567.342
  C      242.458     298.696    -567.288
  O      241.957     297.387    -566.901
  C      242.564     298.713    -568.817
  O      243.910     298.338    -569.157
  C      241.579     297.642    -569.237
  O      241.855     297.141    -570.540
  C      241.759     296.619    -568.115
  N      240.623     295.711    -567.988
  C      240.863     294.345    -568.169
  O      241.982     293.938    -568.446
  N      239.811     293.474    -568.029
  C      238.617     293.934    -567.816
  N      237.627     293.023    -567.620
  C      238.306     295.377    -567.725
  C      239.356     296.189    -567.799
  O      238.003     300.981    -567.676
  O      239.940     301.931    -566.226
  H      242.754     296.751    -570.542
  H      239.377     302.723    -566.043
  H      237.290     295.704    -567.572
  H      239.218     297.265    -567.717
  H      242.691     296.045    -568.269
  H      240.569     298.053    -569.240
  H      242.350     299.704    -569.241
  H      243.453     298.808    -566.831
  H      237.902     292.056    -567.516
  H      241.384     299.558    -565.636
  H      236.757     293.277    -567.141
  H      241.973     300.760    -566.798
  P      244.986     299.510    -569.396
  C      244.883     299.451    -571.984
  O      245.660     299.274    -570.837
  O      246.165     299.063    -568.388
  O      244.551     300.900    -569.071
  H      246.677     299.848    -568.136
  H      245.497     299.255    -572.860
  H      244.506     300.468    -572.047
  H      244.035     298.743    -571.984
  H      241.185     303.491    -569.514
  H      241.472     303.191    -567.817
  H      239.940     303.849    -568.341

 3  4  5  6  7  8  9  10  11  12  13  23  27  28  29  30  32 0
 6-311+G(2d,p)
 ****
 34  35 0
 6-311+G(2d,p)
 ****
 1  2  14  15  16  17  18  19  20  21  22  24  25  26 0
 3-21G
 ****
 31  33  36  37  38  39  40  41  42  43  44  45  46 0
 3-21G
 ****


