%nproc=1
%NoSave
%Mem=1900MB
#P OB98/GEN NMR

erre ene a

0 1
  C      226.953    -207.069     200.701
  O      227.275    -207.877     201.821
  P      228.562    -208.825     201.726
  C      228.892    -211.384     201.411
  O      228.094    -210.241     201.129
  C      228.828    -212.391     200.259
  O      228.926    -211.689     198.990
  C      229.951    -213.432     200.291
  O      229.455    -214.681     199.783
  C      230.957    -212.900     199.288
  O      231.789    -213.940     198.781
  C      230.020    -212.271     198.254
  N      231.851    -211.244     193.653
  C      230.998    -212.256     194.053
  N      230.655    -213.160     193.113
  N      230.514    -212.362     195.262
  C      230.949    -211.388     196.101
  C      231.781    -210.328     195.818
  C      232.315    -210.226     194.478
  O      233.102    -209.376     194.068
  N      231.964    -209.524     196.918
  C      231.284    -210.121     197.876
  N      230.677    -211.271     197.439
  O      228.881    -209.151     203.262
  O      229.744    -208.206     201.057
  H      231.195    -214.666     198.501
  H      229.662    -208.643     203.552
  H      232.206    -211.212     192.712
  H      231.212    -209.775     198.900
  H      229.600    -213.029     197.580
  H      231.598    -212.146     199.762
  H      231.046    -213.175     192.179
  H      230.390    -213.598     201.283
  H      230.066    -213.936     193.386
  H      227.846    -212.880     200.279
  H      228.530    -211.856     202.322
  H      229.928    -211.069     201.578
  P      230.107    -216.007     200.412
  C      231.951    -217.447     199.259
  O      231.536    -216.168     199.707
  O      229.233    -217.187     199.774
  O      230.108    -216.042     201.906
  H      229.250    -217.972     200.353
  H      232.065    -217.418     198.174
  H      231.229    -218.229     199.520
  H      232.913    -217.687     199.714
  H      226.075    -206.496     200.915
  H      226.773    -207.693     199.851
  H      227.768    -206.408     200.492

 3  4  5  6  7  8  9  10  11  12  23  26  30  31 0
 6-311+G(2d,p)
 ****
 33  35  36  37  38 0
 6-311+G(2d,p)
 ****
 1  2  13  14  15  16  17  18  19  20  21  22  24  25 0
 3-21G
 ****
 27  28  29  32  34  39  40  41  42  43  44  45  46  47  48  49 0
 3-21G
 ****


