%nproc=1
%NoSave
%Mem=1900MB
#P OB98/GEN NMR

erre ene a

0 1
  C      260.112     422.913     428.654
  O      258.705     422.866     428.588
  H      260.488     423.443     427.774
  H      260.522     421.897     428.650
  H      260.445     423.442     429.551
  P      257.889     422.306     429.847
  C      256.244     421.061     428.285
  O      256.399     422.001     429.339
  C      254.809     421.098     427.726
  O      254.615     422.378     427.037
  C      254.502     419.987     426.703
  O      253.101     419.699     426.813
  C      254.823     420.701     425.402
  O      254.367     419.993     424.272
  C      254.183     422.066     425.702
  N      254.542     423.131     424.781
  C      254.059     423.056     423.479
  O      253.349     422.148     423.045
  N      254.419     424.087     422.643
  C      255.198     425.158     422.981
  O      255.464     426.066     422.197
  C      255.681     425.183     424.370
  C      255.332     424.192     425.197
  O      257.977     423.118     431.100
  O      258.488     420.831     430.057
  H      259.121     420.844     430.803
  H      253.427     420.211     424.121
  H      254.084     424.044     421.692
  H      256.301     426.018     424.669
  H      255.668     424.189     426.232
  H      253.091     421.962     425.733
  H      255.905     420.796     425.285
  H      255.083     419.075     426.875
  H      254.108     421.076     428.564
  H      256.458     420.063     428.683
  H      256.959     421.298     427.489
  P      252.499     418.207     426.752
  C      250.223     418.538     425.568
  O      250.890     418.319     426.799
  O      253.066     417.282     427.783
  O      252.806     417.679     425.267
  H      252.866     416.706     425.277
  H      249.168     418.592     425.739
  H      250.435     417.730     424.899
  H      250.562     419.457     425.137

 6  7  8  9  10  11  12  13  14  15  16  27  31  32  33  34  35 0
 6-311+G(2d,p)
 ****
 36  37 0
 6-311+G(2d,p)
 ****
 1  2  3  4  5  17  18  19  20  21  22  23  24  25 0
 3-21G
 ****
 26  28  29  30  38  39  40  41  42  43  44  45 0
 3-21G
 ****


