%nproc=1
%NoSave
%Mem=1900MB
#P OB98/GEN NMR

erre ene a

0 1
  C      185.935    -230.274     204.762
  O      186.792    -230.554     205.870
  P      186.151    -230.867     207.302
  C      187.403    -233.060     207.863
  O      187.205    -231.689     208.186
  C      188.838    -233.477     208.198
  O      189.800    -232.773     207.376
  C      189.233    -233.140     209.631
  O      188.609    -233.884     210.655
  C      190.751    -233.180     209.564
  O      191.246    -234.513     209.686
  C      191.016    -232.631     208.143
  N      191.480    -231.244     208.151
  C      192.793    -231.041     208.561
  O      193.531    -231.949     208.942
  N      193.227    -229.743     208.554
  C      192.482    -228.651     208.219
  O      192.913    -227.506     208.253
  C      191.093    -228.926     207.818
  C      190.661    -230.188     207.802
  O      184.766    -231.421     207.284
  O      186.161    -229.426     208.013
  H      190.776    -235.062     209.031
  H      185.321    -229.328     208.502
  H      194.178    -229.577     208.841
  H      190.470    -228.082     207.550
  H      189.642    -230.413     207.509
  H      191.779    -233.235     207.636
  H      191.205    -232.596     210.368
  H      188.955    -232.093     209.817
  H      188.949    -234.544     207.993
  H      187.199    -233.223     206.802
  H      186.675    -233.665     208.414
  P      187.131    -233.572     211.192
  C      186.875    -236.143     211.420
  O      186.588    -234.872     211.960
  O      186.193    -232.887     210.258
  O      187.445    -232.580     212.418
  H      186.713    -231.939     212.489
  H      186.417    -236.903     212.058
  H      187.954    -236.313     211.392
  H      186.456    -236.233     210.415
  H      186.528    -230.089     203.890
  H      185.341    -229.411     204.979
  H      185.294    -231.112     204.586

 3  4  5  6  7  8  9  10  11  12  13  23  28  29  30  31  32 0
 6-311+G(2d,p)
 ****
 33  34 0
 6-311+G(2d,p)
 ****
 1  2  14  15  16  17  18  19  20  21  22  24  25  26  27 0
 3-21G
 ****
 35  36  37  38  39  40  41  42  43  44  45 0
 3-21G
 ****


