%nproc=1
%NoSave
%Mem=1900MB
#P OB98/GEN NMR

erre ene a

0 1
  C      281.075     145.493     -31.270
  O      281.615     144.604     -30.312
  H      281.469     146.498     -31.100
  H      281.378     145.161     -32.266
  H      279.984     145.504     -31.219
  P      281.057     144.717     -28.812
  C      281.401     146.373     -26.843
  O      281.808     145.974     -28.142
  C      282.174     147.617     -26.403
  O      283.571     147.252     -26.213
  C      282.124     148.780     -27.407
  O      282.031     150.007     -26.675
  C      283.483     148.713     -28.083
  O      283.898     149.967     -28.612
  C      284.359     148.208     -26.940
  N      289.031     149.263     -28.658
  C      288.135     150.001     -27.966
  N      286.928     149.624     -27.499
  C      286.710     148.320     -27.748
  C      287.526     147.442     -28.437
  C      288.737     147.967     -28.920
  N      289.625     147.245     -29.686
  N      286.925     146.201     -28.538
  C      285.752     146.341     -27.943
  N      285.578     147.603     -27.453
  O      281.734     143.449     -28.097
  O      279.572     144.705     -28.674
  H      284.859     149.934     -28.790
  H      281.166     142.667     -28.214
  H      288.420     151.034     -27.773
  H      284.992     145.575     -27.871
  H      284.658     149.007     -26.252
  H      283.448     147.990     -28.901
  H      281.297     148.712     -28.122
  H      281.791     147.936     -25.425
  H      281.605     145.560     -26.136
  H      290.413     147.736     -30.079
  H      289.370     146.313     -29.979
  H      280.324     146.575     -26.846
  P      280.559     150.567     -26.357
  C      278.510     151.428     -27.716
  O      279.854     150.959     -27.743
  O      280.847     151.981     -25.674
  O      279.753     149.675     -25.465
  H      280.161     152.181     -25.007
  H      278.188     151.645     -28.713
  H      278.454     152.316     -27.122
  H      277.878     150.675     -27.293

 6  7  8  9  10  11  12  13  14  15  25  28  32  33  34  35 0
 6-311+G(2d,p)
 ****
 36  39  40 0
 6-311+G(2d,p)
 ****
 1  2  3  4  5  16  17  18  19  20  21  22  23  24 0
 3-21G
 ****
 26  27  29  30  31  37  38  41  42  43  44  45  46  47 0
 3-21G
 ****
 48 0
 3-21G
 ****


