%nproc=1
%NoSave
%Mem=1900MB
#P OB98/GEN NMR

erre ene a

0 1
  C      208.770    -124.003    -178.162
  O      207.646    -123.389    -178.754
  P      206.552    -122.573    -177.922
  C      205.034    -123.115    -175.884
  O      205.722    -123.619    -177.026
  C      203.703    -123.837    -175.622
  O      202.845    -123.692    -176.773
  C      203.943    -125.341    -175.446
  O      204.339    -125.858    -174.191
  C      202.717    -126.011    -176.060
  O      201.749    -126.386    -175.078
  C      202.149    -124.934    -176.985
  N      199.657    -125.071    -181.399
  C      199.341    -124.386    -180.242
  N      198.111    -123.824    -180.204
  N      200.146    -124.285    -179.214
  C      201.300    -124.979    -179.368
  C      201.730    -125.683    -180.468
  C      200.847    -125.751    -181.609
  O      201.056    -126.418    -182.620
  N      202.921    -126.321    -180.234
  C      203.192    -126.038    -178.976
  N      202.221    -125.260    -178.396
  O      205.805    -121.508    -178.656
  O      207.477    -121.841    -176.820
  H      201.084    -126.953    -175.516
  H      207.076    -120.971    -176.631
  H      198.961    -125.181    -182.126
  H      204.060    -126.398    -178.432
  H      201.094    -124.742    -176.754
  H      203.003    -126.933    -176.579
  H      197.415    -124.005    -180.914
  H      204.769    -125.607    -176.115
  H      197.782    -123.465    -179.316
  H      203.165    -123.377    -174.788
  H      204.870    -122.048    -176.043
  H      205.674    -123.215    -175.000
  P      205.434    -126.994    -173.937
  C      205.580    -129.534    -174.218
  O      204.718    -128.422    -174.045
  O      205.765    -126.882    -172.373
  O      206.685    -126.854    -174.743
  H      206.641    -127.267    -172.193
  H      204.997    -130.384    -174.582
  H      206.033    -129.797    -173.257
  H      206.369    -129.309    -174.942
  H      209.352    -124.486    -178.919
  H      208.444    -124.728    -177.445
  H      209.366    -123.261    -177.673

 3  4  5  6  7  8  9  10  11  12  23  26  30  31 0
 6-311+G(2d,p)
 ****
 33  35  36  37  38 0
 6-311+G(2d,p)
 ****
 1  2  13  14  15  16  17  18  19  20  21  22  24  25 0
 3-21G
 ****
 27  28  29  32  34  39  40  41  42  43  44  45  46  47  48  49 0
 3-21G
 ****


