%nproc=1
%NoSave
%Mem=1900MB
#P OB98/GEN NMR

erre ene a

0 1
  C      288.597     165.764     357.710
  O      289.452     166.180     356.650
  P      290.661     165.205     356.246
  C      293.135     164.913     357.065
  O      291.983     165.732     356.982
  C      294.311     165.677     357.703
  O      294.952     166.468     356.674
  C      293.926     166.670     358.797
  O      295.090     166.972     359.568
  C      293.529     167.884     357.985
  O      293.525     169.067     358.775
  C      294.550     167.856     356.823
  N      294.011     168.372     355.546
  C      294.116     169.734     355.284
  O      294.634     170.543     356.053
  N      293.568     170.164     354.106
  C      292.971     169.380     353.165
  O      292.422     169.830     352.169
  C      293.015     167.935     353.427
  C      293.508     167.505     354.587
  O      290.907     165.530     354.701
  O      290.362     163.760     356.474
  H      294.447     169.414     358.767
  H      290.559     164.814     354.145
  H      293.578     171.159     353.936
  H      292.610     167.271     352.671
  H      293.528     166.439     354.808
  H      295.440     168.454     357.066
  H      292.516     167.752     357.595
  H      293.119     166.335     359.453
  H      295.047     164.958     358.076
  H      293.410     164.556     356.069
  H      292.913     164.024     357.668
  P      294.937     167.044     361.163
  C      295.235     168.849     362.967
  O      295.294     168.549     361.585
  O      295.633     165.972     361.932
  O      293.346     166.989     361.371
  H      293.145     166.728     362.289
  H      295.951     169.647     363.182
  H      295.480     167.975     363.580
  H      294.230     169.195     363.215
  H      287.842     166.505     357.870
  H      289.172     165.641     358.604
  H      288.135     164.834     357.452

 3  4  5  6  7  8  9  10  11  12  13  23  28  29  30  31  32 0
 6-311+G(2d,p)
 ****
 33  34 0
 6-311+G(2d,p)
 ****
 1  2  14  15  16  17  18  19  20  21  22  24  25  26  27 0
 3-21G
 ****
 35  36  37  38  39  40  41  42  43  44  45 0
 3-21G
 ****


