%nproc=1
%NoSave
%Mem=1900MB
#P OB98/GEN NMR

erre ene a

0 1
  C     -252.762     -32.401     104.333
  O     -253.273     -31.170     104.815
  H     -251.668     -32.355     104.351
  H     -253.092     -32.559     103.301
  H     -253.097     -33.226     104.965
  P     -254.873     -31.049     104.903
  C     -255.383     -29.707     102.722
  O     -255.391     -30.967     103.383
  C     -256.443     -29.686     101.613
  O     -256.267     -30.874     100.782
  C     -257.888     -29.718     102.140
  O     -258.729     -29.021     101.204
  C     -258.206     -31.203     102.086
  O     -259.596     -31.416     102.168
  C     -257.532     -31.566     100.763
  N     -258.818     -35.627      97.958
  C     -259.113     -34.311      97.833
  N     -258.721     -33.287      98.617
  C     -257.923     -33.728      99.609
  C     -257.544     -35.035      99.867
  C     -258.032     -36.017      98.990
  N     -257.756     -37.361      99.124
  N     -256.743     -35.093     100.993
  C     -256.638     -33.838     101.406
  N     -257.338     -32.984     100.596
  O     -255.092     -29.563     105.464
  O     -255.556     -32.073     105.745
  H     -260.085     -30.775     101.614
  H     -255.166     -29.582     106.439
  H     -259.745     -34.051      96.982
  H     -256.088     -33.503     102.271
  H     -258.103     -31.202      99.895
  H     -257.741     -31.739     102.922
  H     -257.996     -29.274     103.133
  H     -256.269     -28.817     100.970
  H     -254.388     -29.549     102.294
  H     -255.599     -28.914     103.452
  H     -258.170     -38.003      98.468
  H     -257.194     -37.672      99.910
  P     -259.298     -27.563     101.602
  C     -261.840     -28.152     101.772
  O     -260.663     -27.706     102.432
  O     -259.825     -27.021     100.184
  O     -258.295     -26.619     102.179
  H     -259.528     -26.096     100.054
  H     -262.649     -28.188     102.471
  H     -261.674     -29.129     101.368
  H     -262.083     -27.475     100.980

 6  7  8  9  10  11  12  13  14  15  25  28  32  33  34  35 0
 6-311+G(2d,p)
 ****
 36  37  40 0
 6-311+G(2d,p)
 ****
 1  2  3  4  5  16  17  18  19  20  21  22  23  24 0
 3-21G
 ****
 26  27  29  30  31  38  39 41  42  43  44  45  46  47  48 0
 3-21G
 ****


