%nproc=1
%NoSave
%Mem=1900MB
#P OB98/GEN NMR

erre ene a

0 1
  C      473.663    -891.780     341.302
  O      473.275    -890.540     340.743
  H      474.757    -891.820     341.362
  H      473.328    -892.620     340.683
  H      473.256    -891.890     342.313
  P      471.722    -890.310     340.412
  C      469.882    -891.710     339.240
  O      471.264    -891.610     339.584
  C      469.696    -892.730     338.117
  O      470.466    -893.930     338.392
  C      468.262    -893.190     337.965
  O      467.476    -892.200     337.324
  C      468.451    -894.480     337.188
  O      468.661    -894.230     335.793
  C      469.738    -895.050     337.840
  N      469.458    -896.030     338.872
  C      469.778    -897.370     338.551
  O      470.266    -897.640     337.449
  N      469.512    -898.350     339.473
  C      468.997    -898.030     340.623
  N      468.743    -899.050     341.495
  C      468.660    -896.650     341.005
  C      468.908    -895.710     340.094
  O      471.349    -889.010     339.777
  O      471.000    -890.520     341.829
  H      469.485    -893.700     335.740
  H      470.946    -889.680     342.306
  H      468.226    -896.430     341.970
  H      468.691    -894.660     340.301
  H      470.387    -895.510     337.079
  H      467.584    -895.140     337.279
  H      467.839    -893.440     338.941
  H      470.079    -892.290     337.186
  H      468.988    -900.000     341.186
  H      469.552    -890.730     338.917
  H      468.435    -898.930     342.445
  H      469.301    -892.010     340.120
  P      465.906    -892.060     337.648
  C      463.808    -893.490     337.192
  O      465.234    -893.380     337.037
  O      465.278    -890.770     337.238
  O      465.837    -892.320     339.232
  H      466.186    -891.550     339.743
  H      463.471    -894.404     336.750
  H      463.332    -892.663     336.709
  H      463.561    -893.485     338.233

 6  7  8  9  10  11  12  13  14  15  16  26  30  31  32  33  35 0
 6-311+G(2d,p)
 ****
 37  38 0
 6-311+G(2d,p)
 ****
 1  2  3  4  5  17  18  19  20  21  22  23  24  25 0
 3-21G
 ****
 27  28  29  34  36  39  40  41  42  43  44  45  46 0
 3-21G
 ****


