%nproc=1
%NoSave
%Mem=1900MB
#P OB98/GEN NMR

erre ene a

0 1
  C     -837.934     -12.370      32.216
  O     -837.968     -12.833      30.878
  H     -836.914     -12.084      32.492
  H     -838.585     -11.493      32.301
  H     -838.304     -13.148      32.890
  P     -837.097     -14.140      30.552
  C     -838.059     -13.745      28.172
  O     -836.972     -14.210      28.952
  C     -837.927     -14.227      26.736
  O     -836.819     -13.571      26.087
  C     -837.648     -15.727      26.587
  O     -838.833     -16.496      26.721
  C     -837.108     -15.775      25.163
  O     -838.198     -15.724      24.227
  C     -836.289     -14.479      25.083
  N     -831.929     -16.453      23.248
  C     -833.173     -16.342      22.720
  N     -834.269     -15.785      23.259
  C     -834.004     -15.281      24.473
  C     -832.786     -15.293      25.144
  C     -831.713     -15.909      24.476
  N     -830.458     -16.081      25.070
  N     -832.900     -14.697      26.386
  C     -834.166     -14.353      26.472
  N     -834.869     -14.680      25.347
  O     -838.111     -15.338      30.907
  O     -835.815     -14.258      31.310
  H     -838.865     -16.362      24.543
  H     -837.920     -15.663      31.806
  H     -833.291     -16.769      21.724
  H     -834.615     -13.866      27.333
  H     -836.382     -13.981      24.113
  H     -836.540     -16.690      24.954
  H     -836.859     -16.055      27.284
  H     -838.844     -13.950      26.191
  H     -838.077     -12.645      28.184
  H     -829.969     -16.895      24.732
  H     -830.440     -15.899      26.070
  H     -838.990     -14.117      28.614
  P     -838.863     -17.625      27.860
  C     -841.458     -17.572      27.901
  O     -840.278     -18.369      27.738
  O     -839.004     -16.767      29.211
  O     -837.666     -18.516      27.917
  H     -838.271     -16.995      29.828
  H     -842.324     -18.191      27.796
  H     -841.476     -16.804      27.156
  H     -841.455     -17.125      28.873

 6  7  8  9  10  11  12  13  14  15  25  28  32  33  34  35 0
 6-311+G(2d,p)
 ****
 36  39  40 0
 6-311+G(2d,p)
 ****
 1  2  3  4  5  16  17  18  19  20  21  22  23  24 0
 3-21G
 ****
 26  27  29  30  31  37  38  41  42  43  44  45  46  47  48 0
 3-21G
 ****


