%nproc=1
%NoSave
%Mem=1900MB
#P OB98/GEN NMR

erre ene a

0 1
  C     -263.434       9.882    -366.438
  O     -263.821       9.916    -365.077
  P     -265.268       9.327    -364.699
  C     -264.471       8.031    -362.590
  O     -265.005       7.960    -363.905
  C     -263.437       6.922    -362.379
  O     -262.339       7.069    -363.301
  C     -262.804       6.914    -360.995
  O     -263.626       6.282    -360.028
  C     -261.554       6.090    -361.253
  O     -261.882       4.689    -361.255
  C     -261.150       6.549    -362.660
  N     -256.775       7.959    -360.538
  C     -257.451       6.755    -360.455
  N     -256.912       5.818    -359.643
  N     -258.550       6.495    -361.110
  C     -258.980       7.530    -361.874
  C     -258.392       8.767    -362.040
  C     -257.181       9.045    -361.300
  O     -256.568      10.107    -361.290
  N     -259.113       9.549    -362.903
  C     -260.129       8.789    -363.265
  N     -260.116       7.572    -362.633
  O     -265.844       8.827    -366.107
  O     -266.182      10.297    -364.028
  H     -262.541       4.556    -361.961
  H     -266.809       8.703    -366.049
  H     -255.932       8.113    -360.007
  H     -260.906       9.086    -363.962
  H     -260.785       5.719    -363.270
  H     -260.786       6.236    -360.486
  H     -256.102       5.982    -359.067
  H     -262.516       7.928    -360.685
  H     -257.422       4.951    -359.515
  H     -263.927       5.959    -362.585
  H     -265.281       7.917    -361.863
  H     -264.008       9.011    -362.442
  P     -263.902       7.097    -358.670
  C     -266.499       7.177    -358.624
  O     -265.290       7.860    -358.906
  O     -262.809       8.266    -358.722
  O     -263.797       6.278    -357.425
  H     -262.586       8.568    -357.817
  H     -267.312       7.908    -358.579
  H     -266.444       6.659    -357.662
  H     -266.716       6.458    -359.419
  H     -262.456      10.303    -366.541
  H     -264.130      10.449    -367.021
  H     -263.424       8.868    -366.781

 3  4  5  6  7  8  9  10  11  12  23  26  30  31 0
 6-311+G(2d,p)
 ****
 33  35  36  37  38 0
 6-311+G(2d,p)
 ****
 1  2  13  14  15  16  17  18  19  20  21  22  24  25 0
 3-21G
 ****
 27  28  29  32  34  39  40  41  42  43  44  45  46  47  48  49 0
 3-21G
 ****


