%nproc=1
%NoSave
%Mem=1900MB
#P OB98/GEN NMR

erre ene a

0 1
  C     -331.412     480.320    -868.848
  O     -331.523     481.718    -868.667
  H     -332.334     479.949    -869.309
  H     -331.295     479.812    -867.886
  H     -330.569     480.087    -869.503
  P     -330.361     482.482    -867.860
  C     -330.709     484.710    -869.134
  O     -330.767     484.028    -867.885
  C     -331.807     485.761    -869.216
  O     -333.094     485.128    -869.434
  C     -331.968     486.576    -867.930
  O     -330.925     487.532    -867.818
  C     -333.366     487.140    -868.112
  O     -333.369     488.266    -868.985
  C     -334.096     485.930    -868.754
  N     -334.850     485.140    -867.782
  C     -335.950     485.761    -867.203
  O     -336.246     486.930    -867.517
  N     -336.670     485.070    -866.260
  C     -336.351     483.855    -865.958
  N     -337.110     483.233    -865.022
  C     -335.193     483.146    -866.547
  C     -334.493     483.843    -867.457
  O     -328.950     482.196    -868.285
  O     -330.626     482.050    -866.339
  H     -334.310     488.504    -869.111
  H     -330.136     481.238    -866.117
  H     -334.951     482.139    -866.273
  H     -333.629     483.391    -867.954
  H     -334.792     486.283    -869.539
  H     -333.796     487.444    -867.158
  H     -331.968     485.908    -867.063
  H     -331.604     486.421    -870.074
  H     -337.880     483.752    -864.622
  H     -330.833     483.956    -869.910
  H     -337.005     482.248    -864.759
  H     -329.722     485.184    -869.268
  P     -330.413     488.012    -866.371
  C     -327.851     488.041    -866.740
  O     -329.048     488.827    -866.660
  O     -330.308     486.937    -865.342
  O     -331.444     489.184    -865.983
  H     -332.311     488.799    -865.719
  H     -327.016     488.682    -866.933
  H     -327.945     487.328    -867.533
  H     -327.699     487.527    -865.814

 6  7  8  9  10  11  12  13  14  15  16  26  30  31  32  33  35 0
 6-311+G(2d,p)
 ****
 37  38 0
 6-311+G(2d,p)
 ****
 1  2  3  4  5  17  18  19  20  21  22  23  24  25 0
 3-21G
 ****
 27  28  29  34  36  39  40  41  42  43  44  45  46 0
 3-21G
 ****


