%nproc=1
%NoSave
%Mem=1900MB
#P OB98/GEN NMR

erre ene a

0 1
  C      -59.303    -669.630    -309.490
  O      -59.993    -670.556    -310.298
  H      -58.426    -670.125    -309.057
  H      -59.948    -669.287    -308.674
  H      -58.968    -668.776    -310.084
  P      -61.329    -670.028    -311.015
  C      -60.291    -669.416    -313.311
  O      -60.862    -668.941    -312.098
  C      -60.296    -668.310    -314.373
  O      -59.517    -667.167    -313.931
  C      -59.736    -668.729    -315.717
  O      -60.707    -669.403    -316.498
  C      -59.341    -667.382    -316.319
  O      -60.483    -666.704    -316.880
  C      -58.811    -666.632    -315.082
  N      -54.319    -664.922    -316.616
  C      -55.590    -664.533    -316.990
  N      -55.679    -663.596    -317.954
  N      -56.677    -665.038    -316.473
  C      -56.440    -665.994    -315.549
  C      -55.228    -666.447    -315.083
  C      -54.026    -665.861    -315.646
  O      -52.871    -666.113    -315.309
  N      -55.385    -667.425    -314.122
  C      -56.697    -667.580    -314.034
  N      -57.374    -666.752    -314.891
  O      -62.034    -669.139    -309.879
  O      -62.248    -671.089    -311.520
  H      -60.793    -667.186    -317.658
  H      -63.000    -669.178    -310.000
  H      -53.517    -664.479    -317.043
  H      -57.194    -668.275    -313.373
  H      -59.039    -665.558    -315.132
  H      -58.612    -667.495    -317.117
  H      -54.918    -663.422    -318.601
  H      -58.829    -669.352    -315.590
  H      -56.608    -663.319    -318.247
  H      -61.339    -667.967    -314.479
  H      -60.870    -670.263    -313.674
  H      -59.262    -669.741    -313.115
  P      -60.444    -670.960    -316.833
  C      -62.991    -671.421    -316.582
  O      -61.668    -671.772    -316.197
  O      -59.213    -671.344    -315.885
  O      -60.160    -671.239    -318.273
  H      -58.793    -672.167    -316.199
  H      -63.690    -672.052    -316.073
  H      -63.100    -671.548    -317.639
  H      -63.179    -670.400    -316.324

 6  7  8  9  10  11  12  13  14  15  26  29  33  34 0
 6-311+G(2d,p)
 ****
 36  38  39  40  41 0
 6-311+G(2d,p)
 ****
 1  2  3  4  5  16  17  18  19  20  21  22  23  24  25 0
 3-21G
 ****
 27  28  30  31  32  35  37  42  43  44  45  46  47 0
 3-21G
 ****
 48  49 0
 3-21G
 ****


