%nproc=1
%NoSave
%Mem=1900MB
#P OB98/GEN NMR

erre ene a

0 1
  C     -118.659    -267.261     -65.228
  O     -119.172    -268.019     -66.326
  P     -118.180    -269.080     -67.016
  C     -120.167    -270.664     -67.639
  O     -119.073    -269.882     -68.087
  C     -121.490    -269.918     -67.846
  O     -121.658    -269.590     -69.257
  C     -122.730    -270.698     -67.400
  O     -123.643    -269.744     -66.837
  C     -123.283    -271.242     -68.704
  O     -124.661    -271.569     -68.612
  C     -122.953    -270.088     -69.655
  N     -122.965    -270.489     -71.062
  C     -124.196    -270.848     -71.599
  O     -125.226    -270.915     -70.930
  N     -124.194    -271.177     -72.929
  C     -123.092    -271.254     -73.730
  O     -123.145    -271.554     -74.919
  C     -121.803    -270.972     -73.078
  C     -121.801    -270.609     -71.791
  O     -117.955    -270.121     -65.829
  O     -116.941    -268.450     -67.558
  H     -118.747    -270.270     -65.284
  H     -125.184    -270.744     -68.587
  H     -125.078    -271.410     -73.348
  H     -120.901    -271.082     -73.668
  H     -120.871    -270.419     -71.274
  H     -123.667    -269.268     -69.523
  H     -122.732    -272.148     -68.993
  H     -122.507    -271.473     -66.663
  H     -121.435    -268.968     -67.301
  H     -120.052    -270.888     -66.574
  H     -120.163    -271.621     -68.171
  P     -124.108    -269.943     -65.306
  C     -123.384    -267.625     -64.335
  O     -124.428    -268.489     -64.718
  O     -122.699    -270.303     -64.633
  O     -125.138    -271.002     -65.096
  H     -121.986    -269.701     -64.897
  H     -123.794    -266.619     -64.194
  H     -122.610    -267.574     -65.105
  H     -122.948    -267.961     -63.393
  H     -119.418    -266.599     -64.866
  H     -117.813    -266.691     -65.552
  H     -118.362    -267.925     -64.444

 3  4  5  6  7  8  9  10  11  12  13  24  28  29  30  31  32 0
 6-311+G(2d,p)
 ****
 33  34 0
 6-311+G(2d,p)
 ****
 1  2  14  15  16  17  18  19  20  21  22  23  25  26  27 0
 3-21G
 ****
 35  36  37  38  39  40  41  42  43  44  45 0
 3-21G
 ****


