%nproc=1
%NoSave
%Mem=1900MB
#P OB98/GEN NMR

erre ene a

0 1
  C       49.219     231.520     177.134
  O       49.276     232.944     177.278
  P       48.633     233.805     176.079
  C       46.417     234.633     177.151
  O       47.034     233.745     176.227
  C       44.949     234.888     176.803
  O       44.870     235.522     175.504
  C       44.075     233.630     176.740
  O       42.774     233.949     177.255
  C       43.926     233.378     175.252
  O       42.769     232.603     174.950
  C       43.885     234.814     174.733
  N       42.320     233.667     170.065
  C       41.678     233.501     171.275
  N       40.456     232.928     171.236
  N       42.189     233.867     172.423
  C       43.403     234.456     172.305
  C       44.136     234.686     171.163
  C       43.577     234.238     169.907
  O       44.118     234.308     168.806
  N       45.327     235.307     171.449
  C       45.317     235.445     172.759
  N       44.175     234.937     173.324
  O       48.938     232.911     174.787
  O       49.212     235.173     175.944
  H       42.007     233.212     174.954
  H       49.434     233.435     174.130
  H       41.890     233.351     169.214
  H       46.113     235.879     173.348
  H       42.910     235.279     174.923
  H       44.806     232.840     174.884
  H       39.978     232.684     170.384
  H       44.485     232.767     177.275
  H       39.951     232.841     172.110
  H       44.542     235.596     177.534
  H       46.955     235.584     177.153
  H       46.498     234.202     178.155
  P       42.392     233.312     178.678
  C       42.651     235.522     180.024
  O       43.131     234.216     179.774
  O       43.215     231.940     178.701
  O       40.929     233.101     178.880
  H       42.768     231.288     179.272
  H       41.676     235.701     179.560
  H       43.368     236.248     179.630
  H       42.558     235.665     181.104
  H       49.673     231.057     177.985
  H       49.743     231.230     176.248
  H       48.198     231.209     177.062

 3  4  5  6  7  8  9  10  11  12  23  26  30  31  33  0
 6-311+G(2d,p)
 ****
 35  36  37  38 0
 6-311+G(2d,p)
 ****
 1  2  13  14  15  16  17  18  19  20  21  22  24  25  27  28  29 0
 3-21G
 ****
 32  34  39  40  41  42  43  44  45  46  47  48  49 0
 3-21G
 ****


