%nproc=1
%NoSave
%Mem=1900MB
#P OB98/GEN NMR

erre ene a

0 1
  C      284.823     765.931    1381.349
  O      283.560     765.285    1381.536
  P      282.780     764.451    1380.413
  C      282.071     762.648    1382.192
  O      282.633     762.942    1380.916
  C      282.367     761.200    1382.605
  O      282.020     760.317    1381.494
  C      283.858     760.966    1382.909
  O      284.079     760.149    1384.054
  C      284.406     760.461    1381.587
  O      285.634     759.764    1381.702
  C      283.225     759.659    1381.045
  N      282.803     756.576    1376.986
  C      282.886     756.257    1378.325
  N      282.875     754.945    1378.636
  N      282.984     757.145    1379.271
  C      283.076     758.416    1378.832
  C      283.019     758.870    1377.533
  C      282.849     757.884    1376.482
  O      282.754     758.108    1375.285
  N      283.123     760.229    1377.461
  C      283.263     760.605    1378.727
  N      283.234     759.539    1379.587
  O      283.249     764.653    1379.002
  O      281.274     765.018    1380.510
  H      285.443     758.901    1382.135
  H      280.896     764.970    1379.604
  H      282.696     755.851    1376.295
  H      283.372     761.636    1379.060
  H      283.205     758.639    1381.426
  H      284.590     761.343    1380.952
  H      282.916     754.213    1377.944
  H      284.356     761.906    1383.175
  H      283.163     754.721    1379.591
  H      281.725     760.934    1383.462
  H      281.008     762.798    1382.100
  H      282.439     763.363    1382.945
  P      284.825     760.519    1385.423
  C      282.925     760.535    1387.175
  O      283.798     761.332    1386.352
  O      285.896     761.653    1385.018
  O      285.514     759.378    1386.108
  H      286.786     761.332    1385.216
  H      282.119     761.183    1387.534
  H      283.489     760.135    1388.005
  H      282.498     759.731    1386.569
  H      285.114     766.414    1382.258
  H      284.739     766.659    1380.569
  H      285.560     765.203    1381.080

 3  4  5  6  7  8  9  10  11  12  23  26  30  31 0
 6-311+G(2d,p)
 ****
 33  35  36  37  38 0
 6-311+G(2d,p)
 ****
 1  2  13  14  15  16  17  18  19  20  21  22  24  25 0
 3-21G
 ****
 27  28  29  32  34  39  40  41  42  43  44  45  46  47  48  49 0
 3-21G
 ****


