%nproc=1
%NoSave
%Mem=1900MB
#P OB98/GEN NMR

erre ene a

0 1
  C      -35.452     107.877    -227.150
  O      -36.264     106.822    -227.681
  P      -35.486     105.655    -228.467
  C      -35.345     106.886    -230.751
  O      -34.634     106.334    -229.650
  C      -34.557     108.005    -231.436
  O      -33.364     107.446    -232.042
  C      -35.317     108.743    -232.544
  O      -34.952     110.130    -232.506
  C      -34.740     108.156    -233.818
  O      -34.907     109.025    -234.935
  C      -33.291     107.940    -233.389
  N      -28.832     106.890    -235.533
  C      -29.163     107.868    -234.617
  N      -28.167     108.698    -234.235
  N      -30.361     108.021    -234.116
  C      -31.248     107.099    -234.562
  C      -31.041     106.077    -235.461
  C      -29.719     105.949    -236.036
  O      -29.378     105.135    -236.895
  N      -32.188     105.348    -235.667
  C      -33.087     105.936    -234.904
  N      -32.568     107.005    -234.219
  O      -36.664     104.883    -229.231
  O      -34.721     104.736    -227.577
  H      -34.541     109.892    -234.680
  H      -36.654     103.938    -228.988
  H      -27.901     106.832    -235.901
  H      -34.124     105.644    -234.824
  H      -32.735     108.883    -233.374
  H      -35.243     107.208    -234.042
  H      -27.207     108.596    -234.530
  H      -36.406     108.644    -232.489
  H      -28.379     109.394    -233.529
  H      -34.228     108.712    -230.667
  H      -36.301     107.285    -230.400
  H      -35.561     106.084    -231.464
  P      -35.928     111.104    -231.685
  C      -37.307     112.218    -233.590
  O      -37.255     111.239    -232.571
  O      -35.229     112.537    -231.829
  O      -36.128     110.709    -230.260
  H      -35.459     113.102    -231.069
  H      -36.326     112.660    -233.787
  H      -37.996     113.010    -233.288
  H      -37.677     111.756    -234.507
  H      -36.075     108.590    -226.652
  H      -34.926     108.358    -227.948
  H      -34.749     107.470    -226.454

 3  4  5  6  7  8  9  10  11  12  23  26  30  31  33  0
 6-311+G(2d,p)
 ****
 35  36  37  38 0
 6-311+G(2d,p)
 ****
 1  2  13  14  15  16  17  18  19  20  21  22  24  25  27  28  29 0
 3-21G
 ****
 32  34  39  40  41  42  43  44  45  46  47  48  49 0
 3-21G
 ****


