%nproc=1
%NoSave
%Mem=1900MB
#P OB98/GEN NMR

erre ene a

0 1
  C     -894.365    -554.752    -889.230
  O     -895.525    -554.444    -889.920
  H     -894.595    -555.264    -888.280
  H     -893.785    -553.854    -888.990
  H     -893.715    -555.452    -889.810
  P     -895.375    -554.026    -891.450
  C     -896.735    -556.003    -892.410
  O     -895.485    -555.379    -892.350
  C     -896.655    -557.289    -893.260
  O     -896.095    -556.964    -894.580
  C     -895.725    -558.375    -892.640
  O     -896.315    -559.671    -892.860
  C     -894.435    -558.233    -893.420
  O     -893.675    -559.445    -893.450
  C     -894.985    -557.831    -894.810
  N     -892.025    -558.243    -898.860
  C     -893.035    -559.086    -898.400
  N     -893.245    -560.203    -899.110
  N     -893.725    -558.848    -897.320
  C     -893.405    -557.680    -896.740
  C     -892.425    -556.753    -897.070
  C     -891.645    -557.047    -898.270
  O     -890.725    -556.365    -898.730
  N     -892.385    -555.705    -896.180
  C     -893.295    -555.965    -895.310
  N     -893.995    -557.168    -895.570
  O     -893.825    -553.622    -891.570
  O     -896.245    -552.884    -891.910
  H     -894.225    -560.141    -893.860
  H     -893.725    -552.673    -891.780
  H     -891.495    -558.478    -899.710
  H     -893.565    -555.353    -894.430
  H     -895.325    -558.695    -895.390
  H     -893.805    -557.459    -893.000
  H     -892.805    -560.394    -900.000
  H     -895.585    -558.220    -891.540
  H     -894.045    -560.807    -898.820
  H     -897.675    -557.708    -893.420
  H     -897.465    -555.340    -892.890
  H     -897.105    -556.275    -891.390
  P     -897.645    -560.046    -892.020
  C     -899.095    -560.232    -894.140
  O     -898.945    -559.651    -892.870
  O     -897.625    -558.933    -890.780
  O     -897.625    -561.416    -891.450
  H     -897.345    -559.359    -889.990
  H     -900.000    -559.880    -894.589
  H     -899.135    -561.297    -894.043
  H     -898.263    -559.962    -894.756

 6  7  8  9  10  11  12  13  14  15  26  29  33  34 0
 6-311+G(2d,p)
 ****
 36  38  39  40  41 0
 6-311+G(2d,p)
 ****
 1  2  3  4  5  16  17  18  19  20  21  22  23  24  25 0
 3-21G
 ****
 27  28  30  31  32  35  37  42  43  44  45  46  47 0
 3-21G
 ****
 48  49 0
 3-21G
 ****


