%nproc=1
%NoSave
%Mem=1900MB
#P OB98/GEN NMR

erre ene a

0 1
  C     -109.805      13.150     201.956
  O     -109.908      14.231     201.057
  H     -109.010      13.371     202.675
  H     -109.539      12.233     201.424
  H     -110.741      13.010     202.501
  P     -110.972      14.157     199.859
  C     -112.001      16.044     198.455
  O     -110.817      15.553     199.068
  C     -111.791      17.457     197.908
  O     -111.406      18.345     198.993
  C     -110.701      17.546     196.830
  O     -111.179      18.313     195.722
  C     -109.575      18.298     197.521
  O     -108.711      18.970     196.610
  C     -110.370      19.197     198.473
  N     -109.534      19.760     199.524
  C     -108.861      20.945     199.210
  O     -108.999      21.459     198.099
  N     -108.010      21.488     200.136
  C     -107.808      20.876     201.262
  N     -106.930      21.452     202.124
  C     -108.476      19.608     201.623
  C     -109.320      19.113     200.719
  O     -112.363      13.822     200.280
  O     -110.357      13.100     198.827
  H     -109.255      19.557     196.040
  H     -111.083      12.741     198.266
  H     -108.270      19.135     202.572
  H     -109.855      18.186     200.896
  H     -110.848      20.022     197.928
  H     -108.968      17.588     198.100
  H     -110.371      16.572     196.472
  H     -112.752      17.830     197.533
  H     -106.490      22.318     201.832
  H     -112.809      16.037     199.196
  H     -106.676      21.058     203.016
  H     -112.265      15.377     197.628
  P     -111.812      17.480     194.504
  C     -113.540      18.367     192.783
  O     -112.256      18.524     193.369
  O     -113.197      16.947     195.104
  O     -110.947      16.358     194.038
  H     -113.150      15.982     195.237
  H     -113.693      19.131     192.049
  H     -114.290      18.446     193.542
  H     -113.604      17.406     192.317

 6  7  8  9  10  11  12  13  14  15  16  26  30  31  32  33  35 0
 6-311+G(2d,p)
 ****
 37  38 0
 6-311+G(2d,p)
 ****
 1  2  3  4  5  17  18  19  20  21  22  23  24  25 0
 3-21G
 ****
 27  28  29  34  36  39  40  41  42  43  44  45  46 0
 3-21G
 ****


