%nproc=1
%NoSave
%Mem=1900MB
#P OB98/GEN NMR

erre ene a

0 1
  C      110.837    -342.244    -263.252
  O      111.672    -341.093    -263.039
  P      112.514    -340.848    -261.697
  C      112.387    -339.288    -259.644
  O      111.667    -339.904    -260.705
  C      111.450    -338.773    -258.542
  O      110.624    -337.678    -259.058
  C      110.488    -339.837    -257.969
  O      110.393    -339.588    -256.571
  C      109.190    -339.508    -258.697
  O      108.039    -340.047    -258.067
  C      109.266    -337.980    -258.678
  N      108.321    -337.298    -259.559
  C      107.184    -336.721    -258.973
  O      106.954    -336.833    -257.777
  N      106.306    -336.036    -259.783
  C      106.538    -335.941    -261.056
  N      105.629    -335.241    -261.797
  C      107.705    -336.542    -261.714
  C      108.548    -337.194    -260.915
  O      113.901    -340.359    -261.940
  O      112.534    -342.266    -260.946
  H      113.404    -342.372    -260.499
  H      108.044    -339.743    -257.134
  H      107.863    -336.426    -262.776
  H      109.451    -337.643    -261.320
  H      109.133    -337.615    -257.651
  H      109.239    -339.911    -259.711
  H      110.841    -340.861    -258.124
  H      112.065    -338.347    -257.746
  H      104.839    -334.828    -261.306
  H      112.953    -338.441    -260.053
  H      105.713    -335.095    -262.792
  H      113.103    -340.009    -259.232
  P      110.530    -340.800    -255.533
  C      108.876    -342.403    -254.313
  O      109.067    -341.424    -255.308
  O      110.771    -340.031    -254.141
  O      111.647    -341.762    -255.783
  H      111.254    -340.612    -253.533
  H      107.962    -342.175    -253.759
  H      109.709    -342.454    -253.607
  H      108.755    -343.387    -254.795
  H      110.382    -342.181    -264.218
  H      110.076    -342.276    -262.501
  H      111.432    -343.132    -263.195

 3  4  5  6  7  8  9  10  11  12  13  24  27  28  29  30  32 0
 6-311+G(2d,p)
 ****
 34  35 0
 6-311+G(2d,p)
 ****
 1  2  14  15  16  17  18  19  20  21  22  23  25  26 0
 3-21G
 ****
 31  33  36  37  38  39  40  41  42  43  44  45  46 0
 3-21G
 ****


