%nproc=1
%NoSave
%Mem=1900MB
#P OB98/GEN NMR

erre ene a

0 1
  C     -142.931     108.301     219.558
  O     -143.262     107.379     220.580
  H     -142.131     107.874     218.945
  H     -142.572     109.242     219.984
  H     -143.799     108.491     218.922
  P     -144.304     107.841     221.707
  C     -146.494     106.463     221.662
  O     -145.756     107.543     221.099
  C     -146.627     105.334     220.645
  O     -145.344     104.719     220.411
  C     -147.546     104.214     221.109
  O     -148.903     104.594     220.998
  C     -147.105     103.086     220.198
  O     -147.694     103.206     218.896
  C     -145.578     103.318     220.137
  N     -144.840     102.471     221.069
  C     -144.834     101.102     220.780
  O     -145.420     100.670     219.789
  N     -144.178     100.256     221.642
  C     -143.572     100.733     222.683
  N     -142.942      99.842     223.495
  C     -143.542     102.171     223.015
  C     -144.195     102.974     222.175
  O     -144.137     109.225     222.254
  O     -144.149     106.722     222.842
  H     -148.655     103.076     219.025
  H     -143.461     106.980     223.483
  H     -143.019     102.523     223.890
  H     -144.222     104.045     222.345
  H     -145.200     103.125     219.125
  H     -147.386     102.113     220.599
  H     -147.306     103.931     222.139
  H     -146.973     105.762     219.696
  H     -142.997      98.863     223.233
  H     -147.482     106.852     221.928
  H     -142.367     100.104     224.281
  H     -146.008     106.097     222.573
  P     -149.825     104.718     222.304
  C     -149.969     107.292     222.351
  O     -149.434     106.127     222.971
  O     -149.792     103.543     223.223
  O     -151.279     105.006     221.694
  H     -151.671     104.190     221.299
  H     -149.641     108.161     222.882
  H     -151.038     107.246     222.368
  H     -149.631     107.344     221.337

 6  7  8  9  10  11  12  13  14  15  16  26  30  31  32  33  35 0
 6-311+G(2d,p)
 ****
 37  38 0
 6-311+G(2d,p)
 ****
 1  2  3  4  5  17  18  19  20  21  22  23  24  25 0
 3-21G
 ****
 27  28  29  34  36  39  40  41  42  43  44  45  46 0
 3-21G
 ****


