%nproc=1
%NoSave
%Mem=1900MB
#P OB98/GEN NMR

erre ene a

0 1
  C      290.929     627.570    -280.779
  O      292.065     626.730    -280.870
  H      290.044     626.946    -280.610
  H      290.801     628.106    -281.721
  H      291.032     628.274    -279.948
  P      293.499     627.435    -280.809
  C      293.979     628.029    -283.286
  O      294.227     627.139    -282.219
  C      293.452     627.266    -284.505
  O      294.499     626.372    -284.989
  C      292.201     626.401    -284.213
  O      291.330     626.465    -285.330
  C      292.772     624.999    -284.075
  O      291.801     623.990    -284.370
  C      293.930     625.053    -285.057
  N      296.187     620.864    -286.765
  C      295.262     621.706    -287.377
  N      294.897     621.372    -288.634
  N      294.762     622.780    -286.806
  C      295.270     623.003    -285.574
  C      296.171     622.249    -284.851
  C      296.693     621.050    -285.489
  O      297.491     620.259    -284.975
  N      296.404     622.795    -283.617
  C      295.634     623.880    -283.576
  N      294.925     624.045    -284.755
  O      294.308     626.523    -279.772
  O      293.491     628.870    -280.389
  H      292.256     623.115    -284.306
  H      294.534     627.050    -278.979
  H      296.529     620.057    -287.237
  H      295.551     624.550    -282.741
  H      293.612     624.868    -286.100
  H      293.135     624.841    -283.051
  H      295.266     620.583    -289.152
  H      291.669     626.722    -283.310
  H      294.247     621.985    -289.117
  H      293.256     627.982    -285.308
  H      294.897     628.542    -283.557
  H      293.234     628.780    -282.967
  P      290.032     627.411    -285.190
  C      288.356     625.653    -284.297
  O      288.715     626.491    -285.371
  O      290.073     628.289    -286.529
  O      290.042     628.269    -283.973
  H      290.320     629.202    -286.320
  H      287.473     625.106    -284.552
  H      288.169     626.248    -283.428
  H      289.154     624.969    -284.096

 6  7  8  9  10  11  12  13  14  15  26  29  33  34 0
 6-311+G(2d,p)
 ****
 36  38  39  40  41 0
 6-311+G(2d,p)
 ****
 1  2  3  4  5  16  17  18  19  20  21  22  23  24  25 0
 3-21G
 ****
 27  28  30  31  32  35  37  42  43  44  45  46  47 0
 3-21G
 ****
 48  49 0
 3-21G
 ****


