%nproc=1
%NoSave
%Mem=1900MB
#P OB98/GEN NMR

erre ene a

0 1
  C     -898.985     808.567     -23.792
  O     -898.245     809.582     -24.448
  P     -896.675     809.302     -24.727
  C     -895.925     811.292     -23.147
  O     -895.915     809.890     -23.434
  C     -894.975     811.605     -21.963
  O     -895.495     810.970     -20.779
  C     -893.565     811.070     -22.138
  O     -892.795     811.887     -23.019
  C     -893.085     811.069     -20.680
  O     -892.685     812.399     -20.286
  C     -894.365     810.653     -19.939
  N     -894.375     809.241     -19.561
  C     -893.345     808.829     -18.718
  O     -892.465     809.587     -18.269
  N     -893.375     807.487     -18.369
  C     -894.225     806.546     -18.853
  O     -894.155     805.355     -18.565
  C     -895.265     807.018     -19.772
  C     -895.295     808.323     -20.073
  O     -896.375     810.359     -25.878
  O     -896.385     807.876     -25.054
  H     -896.985     811.112     -25.845
  H     -892.765     812.410     -19.293
  H     -892.625     807.166     -17.745
  H     -895.975     806.313     -20.171
  H     -896.045     808.707     -20.758
  H     -894.485     811.242     -19.009
  H     -892.235     810.405     -20.514
  H     -893.585     810.043     -22.510
  H     -894.975     812.691     -21.817
  H     -896.925     811.603     -22.901
  H     -895.595     811.834     -24.048
  P     -891.445     811.231     -23.587
  C     -889.895     813.059     -22.516
  O     -890.265     811.703     -22.594
  O     -891.215     812.103     -24.906
  O     -891.545     809.753     -23.822
  H     -891.395     813.052     -24.777
  H     -889.395     813.231     -21.561
  H     -890.775     813.706     -22.528
  H     -889.245     813.312     -23.354
  H     -900.000     808.885     -23.674
  H     -898.557     808.378     -22.830
  H     -898.958     807.671     -24.376

 3  4  5  6  7  8  9  10  11  12  13  24  28  29  30  31  32 0
 6-311+G(2d,p)
 ****
 33  34 0
 6-311+G(2d,p)
 ****
 1  2  14  15  16  17  18  19  20  21  22  23  25  26  27 0
 3-21G
 ****
 35  36  37  38  39  40  41  42  43  44  45 0
 3-21G
 ****


