%nproc=1
%NoSave
%Mem=1900MB
#P OB98/GEN NMR

erre ene a

0 1
  C      986.327     232.828    -460.505
  O      985.744     231.812    -459.712
  H      987.212     232.437    -461.023
  H      985.595     233.155    -461.254
  H      986.608     233.684    -459.889
  P      986.650     231.198    -458.535
  C      984.855     229.341    -458.180
  O      986.230     229.652    -458.425
  C      984.564     227.908    -458.650
  O      984.680     227.824    -460.074
  C      985.533     226.853    -458.106
  O      985.191     226.464    -456.778
  C      985.314     225.733    -459.106
  O      984.071     225.053    -458.782
  C      985.197     226.494    -460.421
  N      989.140     223.960    -462.476
  C      988.038     223.560    -461.811
  N      987.047     224.297    -461.307
  C      987.242     225.590    -461.505
  C      988.320     226.176    -462.171
  C      989.308     225.291    -462.662
  N      990.431     225.741    -463.324
  N      988.221     227.552    -462.167
  C      987.057     227.787    -461.546
  N      986.434     226.640    -461.116
  O      986.023     231.840    -457.196
  O      988.121     231.448    -458.645
  H      984.206     224.647    -457.907
  H      986.669     231.794    -456.471
  H      987.947     222.465    -461.666
  H      986.649     228.770    -461.391
  H      984.476     226.035    -461.107
  H      986.112     224.980    -459.070
  H      986.586     227.197    -458.173
  H      983.520     227.674    -458.361
  H      984.234     230.036    -458.738
  H      991.156     225.042    -463.494
  H      990.632     226.712    -463.360
  H      984.649     229.434    -457.110
  P      986.302     226.727    -455.636
  C      984.967     225.019    -454.185
  O      986.243     225.442    -454.668
  O      985.633     227.883    -454.740
  O      987.653     227.105    -456.131
  H      986.332     228.417    -454.305
  H      985.089     224.160    -453.559
  H      984.337     224.770    -455.013
  H      984.519     225.810    -453.621

 6  7  8  9  10  11  12  13  14  15  25  28  32  33  34  35 0
 6-311+G(2d,p)
 ****
 36  39  40 0
 6-311+G(2d,p)
 ****
 1  2  3  4  5  16  17  18  19  20  21  22  23  24 0
 3-21G
 ****
 26  27  29  30  31  37  38  41  42  43  44  45  46  47 0
 3-21G
 ****
 48 0
 3-21G
 ****


