%nproc=1
%NoSave
%Mem=1900MB
#P OB98/GEN NMR

erre ene a

0 1
  C     -234.758    -399.120    -590.191
  O     -234.635    -400.449    -589.729
  H     -234.946    -399.140    -591.267
  H     -233.827    -398.575    -590.006
  H     -235.590    -398.615    -589.693
  P     -234.531    -400.652    -588.137
  C     -236.907    -401.714    -587.792
  O     -236.040    -400.613    -587.595
  C     -238.367    -401.287    -587.642
  O     -238.687    -401.206    -586.232
  C     -238.678    -399.925    -588.271
  O     -240.000    -399.967    -588.811
  C     -238.652    -398.980    -587.081
  O     -239.402    -397.792    -587.323
  C     -239.196    -399.883    -585.966
  N     -238.821    -399.418    -584.635
  C     -239.866    -399.032    -583.785
  O     -241.033    -399.082    -584.175
  N     -239.565    -398.561    -582.534
  C     -238.323    -398.420    -582.182
  N     -238.089    -397.922    -580.934
  C     -237.189    -398.775    -583.058
  C     -237.506    -399.269    -584.253
  O     -233.923    -399.247    -587.667
  O     -233.733    -401.842    -587.715
  H     -240.342    -398.038    -587.457
  H     -234.343    -398.484    -588.092
  H     -236.173    -398.629    -582.721
  H     -236.740    -399.561    -584.957
  H     -240.294    -399.935    -586.014
  H     -237.618    -398.685    -586.860
  H     -237.965    -399.650    -589.050
  H     -239.007    -402.071    -588.069
  H     -238.896    -397.673    -580.374
  H     -236.687    -402.507    -587.071
  H     -237.169    -397.722    -580.576
  H     -236.729    -402.112    -588.797
  P     -240.299    -399.272    -590.222
  C     -240.471    -401.280    -591.845
  O     -239.691    -400.175    -591.396
  O     -239.982    -397.817    -590.307
  O     -241.880    -399.504    -590.398
  H     -242.259    -398.684    -590.772
  H     -239.948    -401.792    -592.626
  H     -241.410    -400.926    -592.217
  H     -240.641    -401.952    -591.030

 6  7  8  9  10  11  12  13  14  15  16  26  30  31  32  33  35 0
 6-311+G(2d,p)
 ****
 37  38 0
 6-311+G(2d,p)
 ****
 1  2  3  4  5  17  18  19  20  21  22  23  24  25 0
 3-21G
 ****
 27  28  29  34  36  39  40  41  42  43  44  45  46 0
 3-21G
 ****


