%nproc=1
%NoSave
%Mem=1900MB
#P OB98/GEN NMR

erre ene a

0 1
  C       50.690     109.490     310.271
  O       51.973     109.296     309.682
  P       52.867     110.456     309.047
  C       53.767     111.610     311.223
  O       54.035     110.809     310.081
  C       54.804     111.428     312.346
  O       54.795     110.048     312.795
  C       56.214     111.700     311.823
  O       56.701     113.030     311.751
  C       57.108     110.757     312.614
  O       57.672     111.378     313.772
  C       56.154     109.631     313.021
  N       58.427     105.046     313.100
  C       58.480     106.062     314.034
  N       59.274     105.857     315.108
  N       57.822     107.185     313.920
  C       57.136     107.296     312.760
  C       57.025     106.368     311.749
  C       57.710     105.104     311.913
  O       57.690     104.167     311.121
  N       56.260     106.842     310.713
  C       55.929     108.063     311.084
  N       56.432     108.385     312.328
  O       52.113     111.601     308.460
  O       53.637     109.710     307.841
  H       58.094     112.206     313.492
  H       53.762     110.378     307.136
  H       58.935     104.191     313.252
  H       55.325     108.748     310.503
  H       56.240     109.411     314.096
  H       57.953     110.422     312.001
  H       59.897     105.067     315.195
  H       56.247     111.336     310.789
  H       59.487     106.676     315.681
  H       54.541     112.028     313.220
  H       52.767     111.334     311.576
  H       53.717     112.663     310.938
  P       57.727     113.605     310.665
  C       55.777     114.226     309.122
  O       56.951     114.683     309.770
  O       57.933     112.388     309.644
  O       59.040     114.064     311.217
  H       58.726     112.535     309.095
  H       55.517     114.925     308.322
  H       54.953     114.183     309.840
  H       55.933     113.230     308.685
  H       50.311     108.551     310.618
  H       50.021     109.898     309.542
  H       50.775     110.167     311.095

 3  4  5  6  7  8  9  10  11  12  23  26  30  31 0
 6-311+G(2d,p)
 ****
 33  35  36  37  38 0
 6-311+G(2d,p)
 ****
 1  2  13  14  15  16  17  18  19  20  21  22  24  25 0
 3-21G
 ****
 27  28  29  32  34  39  40  41  42  43  44  45  46  47  48  49 0
 3-21G
 ****


