%nproc=1
%NoSave
%Mem=1900MB
#P OB98/GEN NMR

erre ene a

0 1
  C     -391.335    -321.299     446.992
  O     -390.767    -320.748     445.810
  P     -390.004    -319.350     445.722
  C     -389.984    -318.879     443.134
  O     -389.271    -319.258     444.301
  C     -389.974    -320.008     442.090
  O     -388.607    -320.484     441.931
  C     -390.825    -321.214     442.516
  O     -391.601    -321.765     441.460
  C     -389.808    -322.124     443.184
  O     -390.234    -323.476     443.275
  C     -388.555    -321.869     442.349
  N     -385.728    -325.330     444.820
  C     -387.030    -325.426     444.365
  N     -387.674    -326.589     444.613
  N     -387.653    -324.464     443.739
  C     -386.921    -323.327     443.627
  C     -385.632    -323.107     444.052
  C     -384.935    -324.198     444.699
  O     -383.777    -324.174     445.104
  N     -385.221    -321.835     443.753
  C     -386.266    -321.279     443.173
  N     -387.324    -322.154     443.065
  O     -389.202    -318.967     446.918
  O     -391.198    -318.275     445.573
  H     -389.521    -323.988     443.698
  H     -390.888    -317.458     446.012
  H     -385.291    -326.110     445.274
  H     -386.306    -320.263     442.797
  H     -388.528    -322.488     441.450
  H     -389.666    -321.764     444.209
  H     -387.300    -327.320     445.192
  H     -391.576    -320.913     443.256
  H     -388.687    -326.569     444.477
  H     -390.304    -319.602     441.131
  H     -389.466    -318.001     442.736
  H     -391.003    -318.576     443.383
  P     -393.028    -321.296     440.917
  C     -394.652    -322.840     442.159
  O     -394.016    -322.555     440.926
  O     -392.806    -321.028     439.353
  O     -393.575    -320.073     441.579
  H     -392.989    -320.089     439.154
  H     -395.080    -323.846     442.107
  H     -395.462    -322.123     442.329
  H     -393.940    -322.793     442.986
  H     -391.784    -322.243     446.765
  H     -392.080    -320.633     447.374
  H     -390.568    -321.435     447.726

 3  4  5  6  7  8  9  10  11  12  23  26  30  31 0
 6-311+G(2d,p)
 ****
 33  35  36  37  38 0
 6-311+G(2d,p)
 ****
 1  2  13  14  15  16  17  18  19  20  21  22  24  25 0
 3-21G
 ****
 27  28  29  32  34  39  40  41  42  43  44  45  46  47  48  49 0
 3-21G
 ****


