%nproc=1
%NoSave
%Mem=1900MB
#P OB98/GEN NMR

erre ene a

0 1
  C      -92.279      23.869      16.477
  O      -91.257      24.650      15.885
  H      -92.524      24.293      17.455
  H      -91.947      22.837      16.622
  H      -93.176      23.883      15.852
  P      -90.614      24.139      14.510
  C      -88.619      23.124      15.808
  O      -89.693      22.889      14.904
  C      -87.778      21.861      15.962
  O      -88.528      20.843      16.654
  C      -87.371      21.245      14.631
  O      -86.322      21.979      14.035
  C      -87.022      19.835      15.065
  O      -85.711      19.777      15.641
  C      -88.107      19.562      16.132
  N      -89.242      18.813      15.603
  C      -88.931      17.652      14.886
  O      -87.760      17.309      14.733
  N      -89.961      16.926      14.342
  C      -91.187      17.309      14.512
  N      -92.159      16.544      13.948
  C      -91.558      18.517      15.273
  C      -90.546      19.217      15.782
  O      -89.929      25.166      13.661
  O      -91.846      23.455      13.750
  H      -85.559      18.837      15.863
  H      -92.313      24.111      13.199
  H      -92.594      18.796      15.394
  H      -90.730      20.118      16.357
  H      -87.686      18.999      16.974
  H      -87.046      19.142      14.226
  H      -88.236      21.190      13.962
  H      -86.898      22.104      16.571
  H      -91.858      15.729      13.425
  H      -89.061      23.405      16.770
  H      -93.146      16.695      14.087
  H      -87.994      23.954      15.458
  P      -85.952      21.764      12.489
  C      -84.117      20.049      13.078
  O      -85.350      20.277      12.398
  O      -85.111      22.834      11.880
  O      -87.387      21.610      11.792
  H      -87.851      22.479      11.726
  H      -83.820      19.030      12.945
  H      -84.242      20.251      14.121
  H      -83.364      20.695      12.677

 6  7  8  9  10  11  12  13  14  15  16  26  30  31  32  33  35 0
 6-311+G(2d,p)
 ****
 37  38 0
 6-311+G(2d,p)
 ****
 1  2  3  4  5  17  18  19  20  21  22  23  24  25 0
 3-21G
 ****
 27  28  29  34  36  39  40  41  42  43  44  45  46 0
 3-21G
 ****


