%nproc=1
%NoSave
%Mem=1900MB
#P OB98/GEN NMR

erre ene a

0 1
  C      -11.522    -221.411    -454.506
  O      -12.384    -220.662    -455.340
  H      -11.527    -222.451    -454.841
  H      -11.866    -221.376    -453.469
  H      -10.500    -221.028    -454.570
  P      -12.552    -219.097    -455.047
  C      -12.437    -218.465    -457.546
  O      -13.222    -218.472    -456.362
  C      -12.860    -217.309    -458.446
  O      -13.052    -216.111    -457.669
  C      -11.842    -216.963    -459.531
  O      -11.967    -217.853    -460.629
  C      -12.264    -215.542    -459.862
  O      -13.448    -215.563    -460.680
  C      -12.591    -214.985    -458.466
  N       -9.314    -211.118    -458.488
  C      -10.295    -211.455    -459.402
  N      -10.385    -210.672    -460.497
  N      -11.099    -212.477    -459.261
  C      -10.844    -213.207    -458.152
  C       -9.892    -212.985    -457.184
  C       -9.045    -211.818    -457.321
  O       -8.175    -211.474    -456.527
  N       -9.889    -213.979    -456.241
  C      -10.866    -214.782    -456.617
  N      -11.467    -214.366    -457.781
  O      -11.321    -218.371    -454.593
  O      -13.726    -219.027    -453.964
  H      -13.595    -214.649    -460.981
  H      -13.370    -219.029    -453.057
  H       -8.714    -210.329    -458.663
  H      -11.179    -215.672    -456.084
  H      -13.399    -214.246    -458.492
  H      -11.502    -214.983    -460.406
  H       -9.625    -210.068    -460.785
  H      -10.821    -216.941    -459.138
  H      -11.063    -210.931    -461.201
  H      -13.832    -217.564    -458.888
  H      -12.594    -219.421    -458.054
  H      -11.376    -218.368    -457.299
  P      -10.764    -218.833    -461.042
  C      -12.593    -220.479    -461.830
  O      -11.384    -219.805    -462.155
  O      -10.104    -219.532    -459.902
  O       -9.777    -217.916    -461.896
  H       -9.101    -217.443    -461.348
  H      -12.894    -221.090    -462.655
  H      -13.357    -219.760    -461.622
  H      -12.438    -221.094    -460.968

 6  7  8  9  10  11  12  13  14  15  26  29  33  34 0
 6-311+G(2d,p)
 ****
 36  38  39  40  41 0
 6-311+G(2d,p)
 ****
 1  2  3  4  5  16  17  18  19  20  21  22  23  24  25 0
 3-21G
 ****
 27  28  30  31  32  35  37  42  43  44  45  46  47 0
 3-21G
 ****
 48  49 0
 3-21G
 ****


