%nproc=1
%NoSave
%Mem=1900MB
#P OB98/GEN NMR

erre ene a

0 1
  C      433.149     161.842    -163.183
  O      432.061     162.742    -163.197
  H      433.029     161.161    -162.334
  H      434.093     162.380    -163.067
  H      433.167     161.249    -164.103
  P      432.031     163.894    -164.310
  C      431.511     163.068    -166.699
  O      430.979     163.428    -165.430
  C      431.033     164.057    -167.771
  O      431.764     163.768    -168.990
  C      429.532     163.928    -168.064
  O      428.833     165.165    -167.967
  C      429.498     163.201    -169.404
  O      428.341     163.445    -170.176
  C      430.810     163.630    -170.064
  N      431.303     162.692    -171.073
  C      430.794     162.810    -172.362
  O      429.982     163.660    -172.726
  N      431.269     161.898    -173.270
  C      432.166     160.907    -173.021
  O      432.559     160.122    -173.877
  C      432.652     160.817    -171.634
  C      432.205     161.697    -170.736
  O      433.362     164.316    -164.841
  O      431.274     165.108    -163.591
  H      428.465     163.012    -171.043
  H      431.925     165.779    -163.306
  H      430.913     161.984    -174.212
  H      433.360     160.031    -171.399
  H      432.541     161.663    -169.703
  H      430.697     164.603    -170.547
  H      429.530     162.121    -169.210
  H      429.039     163.298    -167.309
  H      431.301     165.074    -167.458
  H      431.168     162.057    -166.937
  H      432.606     163.072    -166.655
  P      427.927     165.605    -166.726
  C      429.796     166.686    -165.237
  O      428.624     166.859    -166.017
  O      427.465     164.495    -165.841
  O      426.622     166.243    -167.427
  H      425.866     166.050    -166.837
  H      430.109     167.633    -164.849
  H      430.573     166.276    -165.847
  H      429.590     166.019    -164.426

 6  7  8  9  10  11  12  13  14  15  16  26  31  32  33  34  35 0
 6-311+G(2d,p)
 ****
 36  37 0
 6-311+G(2d,p)
 ****
 1  2  3  4  5  17  18  19  20  21  22  23  24  25 0
 3-21G
 ****
 27  28  29  30  38  39  40  41  42  43  44  45 0
 3-21G
 ****


