%nproc=1
%NoSave
%Mem=1900MB
#P OB98/GEN NMR

erre ene a

0 1
  C     1153.500    -429.979     874.707
  O     1152.746    -430.632     875.711
  P     1151.332    -430.041     876.187
  C     1151.119    -432.385     877.248
  O     1150.870    -430.987     877.406
  C     1151.968    -432.913     878.409
  O     1151.293    -432.670     879.679
  C     1152.218    -434.418     878.361
  O     1153.217    -434.724     877.398
  C     1152.608    -434.695     879.808
  O     1153.998    -434.390     880.039
  C     1151.691    -433.720     880.592
  N     1150.523    -434.381     881.179
  C     1150.755    -434.952     882.446
  O     1151.855    -434.891     882.979
  N     1149.702    -435.601     883.058
  C     1148.549    -435.725     882.443
  N     1147.568    -436.386     883.091
  C     1148.307    -435.170     881.083
  C     1149.337    -434.527     880.511
  O     1150.316    -429.857     875.083
  O     1151.735    -428.673     876.919
  H     1154.481    -434.848     879.313
  H     1151.992    -427.975     876.279
  H     1147.353    -435.292     880.621
  H     1149.246    -434.114     879.525
  H     1152.249    -433.237     881.390
  H     1152.445    -435.760     880.072
  H     1151.266    -434.953     878.130
  H     1152.931    -432.378     878.414
  H     1147.785    -436.773     884.009
  H     1151.656    -432.542     876.309
  H     1146.641    -436.566     882.690
  H     1150.170    -432.914     877.182
  P     1153.039    -435.970     876.425
  C     1154.554    -435.040     874.584
  O     1154.362    -436.082     875.521
  O     1151.736    -436.036     875.686
  O     1153.190    -437.249     877.389
  H     1152.500    -437.889     877.186
  H     1155.601    -435.049     874.266
  H     1154.315    -434.063     875.019
  H     1153.919    -435.208     873.692
  H     1154.405    -430.522     874.530
  H     1153.737    -428.986     875.028
  H     1152.928    -429.935     873.804

 3  4  5  6  7  8  9  10  11  12  13  23  27  28  29  30  32 0
 6-311+G(2d,p)
 ****
 34  35 0
 6-311+G(2d,p)
 ****
 1  2  14  15  16  17  18  19  20  21  22  24  25  26 0
 3-21G
 ****
 31  33  36  37  38  39  40  41  42  43  44  45  46 0
 3-21G
 ****


