%nproc=1
%NoSave
%Mem=1900MB
#P OB98/GEN NMR

erre ene a

0 1
  C      119.369    -111.298     661.134
  O      118.151    -110.771     661.613
  H      119.799    -111.942     661.905
  H      120.071    -110.497     660.912
  H      119.189    -111.895     660.234
  P      117.408    -109.705     660.664
  C      115.175    -110.654     661.628
  O      115.976    -109.509     661.366
  C      114.038    -110.299     662.582
  O      113.186    -109.279     661.999
  C      113.101    -111.456     662.915
  O      113.648    -112.351     663.874
  C      111.920    -110.685     663.470
  O      112.227    -110.207     664.791
  C      111.828    -109.522     662.458
  N      110.941    -109.808     661.326
  C      109.677    -109.210     661.359
  O      109.343    -108.485     662.297
  N      108.795    -109.482     660.336
  C      109.156    -110.249     659.355
  N      108.235    -110.480     658.381
  C      110.481    -110.887     659.281
  C      111.318    -110.629     660.282
  O      117.047    -110.563     659.360
  O      118.153    -108.438     660.396
  H      112.153    -110.976     665.385
  H      116.451    -110.035     658.768
  H      110.730    -111.534     658.443
  H      112.309    -111.060     660.289
  H      111.491    -108.597     662.950
  H      111.009    -111.281     663.555
  H      112.791    -111.991     662.018
  H      114.480    -109.867     663.478
  H      107.311    -110.072     658.499
  H      115.819    -111.427     662.077
  H      108.364    -111.176     657.658
  H      114.762    -111.039     660.694
  P      113.238    -113.902     663.744
  C      115.414    -114.801     664.835
  O      113.999    -114.689     664.914
  O      114.002    -114.367     662.419
  O      111.767    -114.160     663.656
  H      113.481    -115.040     661.928
  H      115.776    -115.348     665.680
  H      115.849    -113.824     664.830
  H      115.681    -115.315     663.936

 6  7  8  9  10  11  12  13  14  15  16  26  30  31  32  33  35 0
 6-311+G(2d,p)
 ****
 37  38 0
 6-311+G(2d,p)
 ****
 1  2  3  4  5  17  18  19  20  21  22  23  24  25 0
 3-21G
 ****
 27  28  29  34  36  39  40  41  42  43  44  45  46 0
 3-21G
 ****


