%nproc=1
%NoSave
%Mem=1900MB
#P OB98/GEN NMR

erre ene a

0 1
  C     -474.669     -63.550    -420.686
  O     -473.826     -62.789    -419.811
  P     -472.272     -62.664    -420.201
  C     -471.744     -62.910    -417.660
  O     -471.443     -62.239    -418.890
  C     -470.990     -62.278    -416.485
  O     -469.627     -62.793    -416.416
  C     -470.877     -60.745    -416.576
  O     -470.833     -60.212    -415.240
  C     -469.519     -60.551    -417.216
  O     -469.023     -59.228    -417.006
  C     -468.717     -61.664    -416.530
  N     -463.681     -61.566    -416.519
  C     -464.579     -61.045    -415.607
  N     -464.066     -60.445    -414.511
  N     -465.890     -61.118    -415.752
  C     -466.251     -61.784    -416.881
  C     -465.458     -62.326    -417.849
  C     -464.012     -62.218    -417.696
  O     -463.176     -62.651    -418.469
  N     -466.196     -62.891    -418.860
  C     -467.458     -62.681    -418.481
  N     -467.542     -62.040    -417.275
  O     -472.231     -61.348    -421.106
  O     -471.736     -63.854    -420.948
  H     -469.713     -58.595    -417.332
  H     -472.084     -61.589    -422.035
  H     -462.682     -61.475    -416.352
  H     -468.336     -62.966    -419.055
  H     -468.389     -61.381    -415.519
  H     -469.582     -60.720    -418.299
  H     -463.071     -60.407    -414.306
  H     -471.682     -60.261    -417.127
  H     -464.701     -60.096    -413.808
  H     -471.496     -62.556    -415.552
  H     -471.471     -63.967    -417.737
  H     -472.831     -62.882    -417.498
  P     -472.247     -59.890    -414.547
  C     -471.533     -57.488    -413.840
  O     -471.956     -58.775    -413.428
  O     -472.559     -61.207    -413.683
  O     -473.352     -59.576    -415.501
  H     -473.520     -61.297    -413.534
  H     -472.378     -56.801    -413.753
  H     -471.177     -57.488    -414.882
  H     -470.734     -57.148    -413.180
  H     -475.670     -63.549    -420.307
  H     -474.310     -64.556    -420.741
  H     -474.657     -63.113    -421.662

 3  4  5  6  7  8  9  10  11  12  23  26  30  31 0
 6-311+G(2d,p)
 ****
 33  35  36  37  38 0
 6-311+G(2d,p)
 ****
 1  2  13  14  15  16  17  18  19  20  21  22  24  25 0
 3-21G
 ****
 27  28  29  32  34  39  40  41  42  43  44  45  46  47  48  49 0
 3-21G
 ****


