%nproc=1
%NoSave
%Mem=1900MB
#P OB98/GEN NMR

erre ene a

0 1
  C     -170.496     273.283      66.401
  O     -171.367     274.393      66.503
  H     -169.984     273.328      65.436
  H     -171.060     272.348      66.454
  H     -169.746     273.311      67.196
  P     -172.240     274.551      67.835
  C     -173.084     276.972      67.537
  O     -173.408     275.590      67.476
  C     -174.063     277.776      66.690
  O     -173.745     277.644      65.291
  C     -175.520     277.342      66.847
  O     -176.082     277.908      68.020
  C     -176.114     277.904      65.566
  O     -176.300     279.326      65.701
  C     -174.998     277.608      64.551
  N     -176.992     275.077      60.639
  C     -177.159     276.394      61.022
  N     -178.014     277.128      60.278
  N     -176.559     276.934      62.050
  C     -175.790     276.059      62.738
  C     -175.560     274.731      62.468
  C     -176.185     274.158      61.295
  O     -176.051     273.001      60.910
  N     -174.773     274.150      63.430
  C     -174.497     275.137      64.259
  N     -175.104     276.315      63.893
  O     -171.488     274.897      69.085
  O     -173.011     273.157      67.963
  H     -175.414     279.729      65.638
  H     -172.514     272.528      68.517
  H     -177.497     274.715      59.847
  H     -173.865     275.054      65.134
  H     -174.937     278.366      63.764
  H     -177.082     277.471      65.316
  H     -178.702     276.696      59.672
  H     -175.623     276.252      66.828
  H     -178.189     278.079      60.571
  H     -173.941     278.835      66.949
  H     -172.064     277.090      67.158
  H     -173.117     277.326      68.572
  P     -176.711     276.977      69.168
  C     -174.841     277.204      70.938
  O     -176.152     277.583      70.543
  O     -176.474     275.516      68.989
  O     -178.253     277.380      69.212
  H     -178.816     276.860      68.589
  H     -174.597     277.677      71.866
  H     -174.141     277.508      70.188
  H     -174.798     276.142      71.057

 6  7  8  9  10  11  12  13  14  15  26  29  33  34 0
 6-311+G(2d,p)
 ****
 36  38  39  40  41 0
 6-311+G(2d,p)
 ****
 1  2  3  4  5  16  17  18  19  20  21  22  23  24  25 0
 3-21G
 ****
 27  28  30  31  32  35  37  42  43  44  45  46  47 0
 3-21G
 ****
 48  49 0
 3-21G
 ****


