%nproc=1
%NoSave
%Mem=1900MB
#P OB98/GEN NMR

erre ene a

0 1
  C      422.632    -897.270    -897.610
  O      421.367    -897.670    -897.060
  P      421.332    -898.580    -895.730
  C      420.021    -897.090    -894.000
  O      421.279    -897.620    -894.450
  C      419.959    -895.590    -894.240
  O      420.070    -895.270    -895.640
  C      418.694    -894.920    -893.760
  O      418.656    -894.770    -892.360
  C      418.740    -893.610    -894.520
  O      419.557    -892.630    -893.820
  C      419.383    -894.010    -895.850
  N      418.410    -894.100    -896.950
  C      418.214    -892.950    -897.680
  O      418.757    -891.860    -897.410
  N      417.323    -893.050    -898.730
  C      416.605    -894.140    -899.070
  O      415.813    -894.180    -900.000
  C      416.818    -895.330    -898.180
  C      417.679    -895.260    -897.190
  O      422.835    -899.140    -895.690
  O      420.347    -899.710    -895.750
  H      420.473    -893.000    -893.820
  H      422.846    -900.000    -895.220
  H      417.197    -892.210    -899.300
  H      416.235    -896.230    -898.390
  H      417.841    -896.120    -896.550
  H      420.154    -893.300    -896.130
  H      417.752    -893.150    -894.630
  H      417.825    -895.500    -894.120
  H      420.864    -895.130    -893.730
  H      419.920    -897.310    -892.950
  H      419.223    -897.610    -894.550
  P      418.052    -896.010    -891.480
  C      419.872    -896.340    -889.630
  O      419.336    -896.740    -890.870
  O      417.546    -896.960    -892.660
  O      417.005    -895.560    -890.530
  H      418.106    -896.890    -893.480
  H      419.074    -895.980    -888.940
  H      420.625    -895.560    -889.790
  H      420.360    -897.200    -889.170
  H      422.469    -896.675    -898.484
  H      423.199    -898.139    -897.871
  H      423.171    -896.697    -896.885

 3  4  5  6  7  8  9  10  11  12  13  23  28  29  30  31  32 0
 6-311+G(2d,p)
 ****
 33  34 0
 6-311+G(2d,p)
 ****
 1  2  14  15  16  17  18  19  20  21  22  24  25  26 0
 3-21G
 ****
 27  35  36  37  38  39  40  41  42  43  44  45 0
 3-21G
 ****


