%nproc=1
%NoSave
%Mem=1900MB
#P OB98/GEN NMR

erre ene a

0 1
  C      148.209      -3.783     -23.938
  O      147.048      -3.121     -24.443
  P      145.626      -3.695     -23.968
  C      144.814      -4.816     -26.159
  O      145.287      -5.003     -24.833
  C      145.034      -6.063     -27.025
  O      144.368      -5.927     -28.308
  C      146.508      -6.357     -27.308
  O      146.656      -7.777     -27.375
  C      146.711      -5.781     -28.696
  O      147.850      -6.355     -29.332
  C      145.357      -6.116     -29.342
  N      145.066      -5.304     -30.522
  C      145.109      -5.946     -31.760
  O      145.451      -7.128     -31.836
  N      144.808      -5.229     -32.890
  C      144.540      -3.964     -32.795
  N      144.252      -3.306     -33.951
  C      144.540      -3.231     -31.515
  C      144.806      -3.957     -30.432
  O      144.588      -2.603     -24.507
  O      145.516      -3.867     -22.488
  H      147.874      -6.036     -30.260
  H      143.981      -2.338     -23.791
  H      144.331      -2.172     -31.487
  H      144.827      -3.511     -29.449
  H      145.324      -7.170     -29.645
  H      146.852      -4.695     -28.639
  H      147.188      -5.948     -26.555
  H      144.580      -6.918     -26.510
  H      144.254      -3.845     -34.809
  H      145.327      -3.968     -26.618
  H      144.030      -2.324     -33.995
  H      143.754      -4.545     -26.122
  P      147.235      -8.542     -26.092
  C      149.333      -9.494     -27.227
  O      148.825      -8.550     -26.303
  O      146.863     -10.065     -26.430
  O      146.736      -8.149     -24.743
  H      147.104     -10.637     -25.680
  H      150.401      -9.309     -27.365
  H      148.829      -9.393     -28.192
  H      149.201     -10.507     -26.837
  H      149.087      -3.309     -24.326
  H      148.194      -4.809     -24.241
  H      148.215      -3.726     -22.870

 3  4  5  6  7  8  9  10  11  12  13  21  23  27  28  29  30  32 0
 6-311+G(2d,p)
 ****
 34  35 0
 6-311+G(2d,p)
 ****
 1  2  14  15  16  17  18  19  20  22  24  25  26 0
 3-21G
 ****
 31  33  36  37  38  39  40  41  42  43  44  45  46 0
 3-21G
 ****


