%nproc=1
%NoSave
%Mem=1900MB
#P OB98/GEN NMR

erre ene a

0 1
  C      337.345    -314.947    -232.710
  O      337.977    -315.714    -233.716
  P      339.568    -315.662    -233.904
  C      340.320    -317.430    -232.182
  O      340.087    -317.143    -233.560
  C      341.010    -318.781    -232.017
  O      340.126    -319.853    -232.406
  C      342.261    -318.950    -232.869
  O      343.351    -318.250    -232.295
  C      342.412    -320.464    -232.877
  O      343.069    -320.929    -231.688
  C      340.940    -320.934    -232.904
  N      340.519    -321.359    -234.235
  C      341.079    -322.553    -234.702
  O      341.901    -323.165    -234.019
  N      340.730    -322.998    -235.956
  C      339.915    -322.299    -236.682
  N      339.617    -322.788    -237.917
  C      339.325    -321.022    -236.239
  C      339.671    -320.611    -235.019
  O      340.257    -314.555    -233.184
  O      339.737    -315.588    -235.499
  H      343.031    -321.906    -231.718
  H      339.505    -314.690    -235.844
  H      338.661    -320.467    -236.886
  H      339.288    -319.683    -234.617
  H      340.792    -321.777    -232.215
  H      343.005    -320.816    -233.727
  H      342.066    -318.595    -233.888
  H      341.254    -318.908    -230.953
  H      340.062    -323.654    -238.195
  H      339.353    -317.451    -231.667
  H      339.020    -322.307    -238.578
  H      340.925    -316.627    -231.742
  P      344.703    -318.058    -233.130
  C      344.041    -315.790    -234.132
  O      344.954    -316.484    -233.300
  O      344.802    -318.862    -234.387
  O      345.845    -318.493    -232.092
  H      346.494    -319.059    -232.555
  H      344.105    -314.722    -233.904
  H      343.017    -316.129    -233.960
  H      344.307    -315.948    -235.178
  H      336.289    -315.116    -232.744
  H      337.546    -313.909    -232.874
  H      337.722    -315.236    -231.751

 3  4  5  6  7  8  9  10  11  12  13  23  27  28  29  30  32 0
 6-311+G(2d,p)
 ****
 34  35 0
 6-311+G(2d,p)
 ****
 1  2  14  15  16  17  18  19  20  21  22  24  25  26 0
 3-21G
 ****
 31  33  36  37  38  39  40  41  42  43  44  45  46 0
 3-21G
 ****


