%nproc=1
%NoSave
%Mem=1900MB
#P OB98/GEN NMR

erre ene a

0 1
  C       75.733     -83.503    -347.437
  O       76.796     -83.156    -348.306
  P       77.102     -81.617    -348.640
  C       75.728     -81.512    -350.811
  O       75.864     -81.031    -349.475
  C       74.329     -81.202    -351.344
  O       73.307     -81.783    -350.493
  C       73.994     -79.720    -351.406
  O       74.675     -79.067    -352.460
  C       72.480     -79.767    -351.551
  O       72.104     -80.025    -352.912
  C       72.119     -80.976    -350.658
  N       71.570     -80.564    -349.369
  C       70.220     -80.211    -349.361
  O       69.578     -80.166    -350.419
  N       69.630     -79.897    -348.162
  C       70.352     -79.824    -347.086
  N       69.705     -79.571    -345.916
  C       71.815     -80.042    -347.081
  C       72.353     -80.426    -348.240
  O       78.439     -81.348    -349.233
  O       76.944     -80.876    -347.219
  H       77.737     -80.324    -347.069
  H       71.143     -80.175    -352.915
  H       72.381     -79.901    -346.172
  H       73.413     -80.627    -348.330
  H       71.392     -81.616    -351.166
  H       72.006     -78.829    -351.256
  H       74.252     -79.246    -350.454
  H       74.238     -81.657    -352.345
  H       68.697     -79.443    -345.957
  H       75.894     -82.591    -350.814
  H       70.096     -79.813    -345.012
  H       76.489     -81.045    -351.443
  P       75.157     -77.557    -352.194
  C       72.727     -76.823    -352.723
  O       73.849     -76.684    -351.870
  O       75.607     -77.045    -353.638
  O       76.269     -77.426    -351.195
  H       76.385     -76.456    -353.556
  H       71.843     -76.463    -352.191
  H       72.567     -77.869    -353.008
  H       72.881     -76.217    -353.618
  H       75.686     -84.567    -347.338
  H       74.810     -83.142    -347.840
  H       75.899     -83.062    -346.476

 3  4  5  6  7  8  9  10  11  12  13  24  27  28  29  30  32 0
 6-311+G(2d,p)
 ****
 34  35 0
 6-311+G(2d,p)
 ****
 1  2  14  15  16  17  18  19  20  21  22  23  25  26 0
 3-21G
 ****
 31  33  36  37  38  39  40  41  42  43  44  45  46 0
 3-21G
 ****


