%nproc=1
%NoSave
%Mem=1900MB
#P OB98/GEN NMR

erre ene a

0 1
  C     -385.746    -232.525     -94.601
  O     -384.819    -233.597     -94.559
  P     -383.601    -233.505     -93.523
  C     -384.226    -235.303     -91.754
  O     -384.152    -233.920     -92.070
  C     -384.298    -235.509     -90.241
  O     -384.459    -236.924     -89.951
  C     -383.049    -235.026     -89.496
  O     -383.434    -234.525     -88.204
  C     -382.259    -236.299     -89.267
  O     -381.364    -236.172     -88.162
  C     -383.392    -237.305     -89.050
  N     -381.056    -241.330     -87.083
  C     -381.543    -240.203     -86.451
  N     -381.292    -240.098     -85.127
  N     -382.218    -239.264     -87.060
  C     -382.385    -239.498     -88.385
  C     -381.965    -240.588     -89.120
  C     -381.211    -241.610     -88.433
  O     -380.732    -242.617     -88.939
  N     -382.355    -240.490     -90.428
  C     -382.974    -239.325     -90.504
  N     -382.987    -238.672     -89.299
  O     -383.360    -231.927     -93.395
  O     -382.356    -234.203     -93.959
  H     -381.891    -236.315     -87.353
  H     -382.553    -231.676     -93.886
  H     -380.533    -242.019     -86.569
  H     -383.405    -238.901     -91.399
  H     -383.790    -237.250     -88.031
  H     -381.673    -236.539     -90.161
  H     -380.717    -240.753     -84.615
  H     -382.470    -234.263     -90.025
  H     -381.596    -239.261     -84.650
  H     -385.195    -235.007     -89.860
  H     -383.339    -235.804     -92.139
  H     -385.105    -235.743     -92.238
  P     -382.313    -233.676     -87.421
  C     -383.268    -231.661     -88.763
  O     -382.126    -232.326     -88.258
  O     -380.965    -234.495     -87.708
  O     -382.581    -233.511     -85.962
  H     -380.318    -234.332     -86.994
  H     -383.340    -230.677     -88.298
  H     -384.189    -232.216     -88.571
  H     -383.154    -231.535     -89.846
  H     -386.496    -232.731     -95.336
  H     -385.234    -231.621     -94.857
  H     -386.207    -232.415     -93.642

 3  4  5  6  7  8  9  10  11  12  23  26  30  31 0
 6-311+G(2d,p)
 ****
 33  35  36  37  38 0
 6-311+G(2d,p)
 ****
 1  2  13  14  15  16  17  18  19  20  21  22  24  25 0
 3-21G
 ****
 27  28  29  32  34  39  40  41  42  43  44  45  46  47  48  49 0
 3-21G
 ****


