%nproc=1
%NoSave
%Mem=1900MB
#P OB98/GEN NMR

erre ene a

0 1
  C     -409.448      74.758    -273.588
  O     -409.655      75.586    -274.743
  P     -409.027      77.056    -274.897
  C     -411.013      78.047    -276.206
  O     -409.624      77.756    -276.213
  C     -411.716      77.493    -277.453
  O     -410.937      77.818    -278.651
  C     -411.929      75.971    -277.443
  O     -413.211      75.729    -278.035
  C     -410.803      75.487    -278.341
  O     -410.994      74.177    -278.845
  C     -410.828      76.592    -279.412
  N     -409.666      76.638    -280.293
  C     -409.874      76.339    -281.649
  O     -410.971      76.001    -282.073
  N     -408.796      76.427    -282.505
  C     -407.631      76.756    -282.054
  N     -406.617      76.831    -282.960
  C     -407.368      77.061    -280.639
  C     -408.414      76.981    -279.824
  O     -407.531      77.074    -274.843
  O     -409.639      77.915    -273.691
  H     -408.969      78.541    -273.373
  H     -410.227      73.959    -279.410
  H     -406.380      77.339    -280.304
  H     -408.317      77.214    -278.766
  H     -411.742      76.499    -280.005
  H     -409.865      75.494    -277.771
  H     -411.913      75.528    -276.442
  H     -412.675      78.011    -277.558
  H     -406.836      76.630    -283.930
  H     -411.144      79.137    -276.179
  H     -405.674      77.090    -282.725
  H     -411.463      77.628    -275.299
  P     -414.470      75.399    -277.093
  C     -414.861      72.900    -277.706
  O     -415.315      74.236    -277.797
  O     -415.408      76.678    -277.340
  O     -414.184      75.246    -275.634
  H     -415.983      76.811    -276.562
  H     -415.708      72.253    -277.480
  H     -414.109      72.766    -276.930
  H     -414.434      72.600    -278.673
  H     -409.964      73.830    -273.718
  H     -409.824      75.257    -272.719
  H     -408.402      74.571    -273.466

 3  4  5  6  7  8  9  10  11  12  13  24  27  28  29  30  32 0
 6-311+G(2d,p)
 ****
 34  35 0
 6-311+G(2d,p)
 ****
 1  2  14  15  16  17  18  19  20  21  22  23  25  26 0
 3-21G
 ****
 31  33  36  37  38  39  40  41  42  43  44  45  46 0
 3-21G
 ****


