%nproc=1
%NoSave
%Mem=1900MB
#P OB98/GEN NMR

erre ene a

0 1
  C       64.204     284.613    -190.196
  O       63.037     284.412    -189.418
  H       64.087     285.538    -190.771
  H       64.321     283.783    -190.892
  H       65.086     284.701    -189.556
  P       63.108     283.296    -188.275
  C       61.350     281.892    -189.563
  O       61.718     282.475    -188.332
  C       59.917     282.291    -189.932
  O       59.005     281.761    -188.927
  C       59.690     283.820    -190.008
  O       58.808     284.099    -191.082
  C       59.014     284.135    -188.681
  O       58.213     285.320    -188.754
  C       58.218     282.864    -188.445
  N       55.386     284.619    -184.641
  C       55.404     284.963    -185.989
  N       54.526     285.921    -186.369
  N       56.199     284.406    -186.879
  C       56.972     283.437    -186.349
  C       57.067     283.008    -185.040
  C       56.199     283.650    -184.070
  O       56.171     283.401    -182.859
  N       58.008     282.020    -184.903
  C       58.501     281.850    -186.128
  N       57.894     282.694    -187.044
  O       62.982     284.149    -186.928
  O       64.344     282.452    -188.279
  H       57.578     285.198    -189.506
  H       63.809     284.066    -186.409
  H       54.770     285.076    -184.006
  H       59.278     281.156    -186.394
  H       57.254     282.856    -188.985
  H       59.770     284.272    -187.900
  H       53.857     286.368    -185.750
  H       60.624     284.377    -190.137
  H       54.492     286.168    -187.352
  H       59.654     281.806    -190.881
  H       61.411     280.809    -189.488
  H       62.047     282.232    -190.348
  P       59.475     284.316    -192.535
  C       59.629     286.900    -192.459
  O       59.042     285.781    -193.073
  O       58.658     283.305    -193.471
  O       60.940     284.037    -192.573
  H       59.221     282.557    -193.718
  H       59.253     287.794    -192.912
  H       60.691     286.858    -192.581
  H       59.390     286.901    -191.416

 6  7  8  9  10  11  12  13  14  15  26  29  33  34 0
 6-311+G(2d,p)
 ****
 36  38  39  40  41 0
 6-311+G(2d,p)
 ****
 1  2  3  4  5  16  17  18  19  20  21  22  23  24  25 0
 3-21G
 ****
 27  28  30  31  32  35  37  42  43  44  45  46  47 0
 3-21G
 ****
 48  49 0
 3-21G
 ****


