%nproc=1
%NoSave
%Mem=1900MB
#P OB98/GEN NMR

erre ene a

0 1
  C     -211.199    -710.138     115.504
  O     -210.451    -711.009     114.643
  P     -209.395    -712.013     115.319
  C     -209.448    -713.369     117.538
  O     -210.175    -712.894     116.410
  C     -210.239    -714.474     118.246
  O     -211.572    -714.024     118.611
  C     -210.441    -715.723     117.407
  O     -209.310    -716.584     117.465
  C     -211.619    -716.375     118.122
  O     -211.156    -717.075     119.289
  C     -212.472    -715.165     118.522
  N     -217.462    -714.564     117.922
  C     -216.727    -714.854     119.056
  N     -217.431    -714.993     120.211
  N     -215.428    -714.987     119.068
  C     -214.869    -714.804     117.853
  C     -215.476    -714.514     116.654
  C     -216.923    -714.382     116.659
  O     -217.631    -714.132     115.677
  N     -214.573    -714.401     115.634
  C     -213.402    -714.604     116.209
  N     -213.530    -714.865     117.555
  O     -208.501    -711.030     116.218
  O     -208.557    -712.775     114.337
  H     -211.953    -717.438     119.735
  H     -207.607    -711.400     116.324
  H     -218.472    -714.471     117.973
  H     -212.446    -714.567     115.700
  H     -212.956    -715.289     119.495
  H     -212.132    -717.112     117.493
  H     -218.422    -714.853     120.284
  H     -210.721    -715.471     116.367
  H     -216.903    -715.181     121.056
  H     -209.703    -714.736     119.167
  H     -209.249    -712.549     118.230
  H     -208.476    -713.729     117.202
  P     -208.692    -717.100     116.069
  C     -207.811    -715.932     113.919
  O     -208.359    -715.783     115.222
  O     -209.970    -717.732     115.329
  O     -207.588    -718.085     116.210
  H     -209.690    -718.476     114.752
  H     -207.800    -714.943     113.433
  H     -208.408    -716.626     113.322
  H     -206.773    -716.301     113.988
  H     -211.856    -709.533     114.915
  H     -210.525    -709.508     116.047
  H     -211.773    -710.723     116.192

 3  4  5  6  7  8  9  10  11  12  23  26  30  31 0
 6-311+G(2d,p)
 ****
 33  35  36  37  38 0
 6-311+G(2d,p)
 ****
 1  2  13  14  15  16  17  18  19  20  21  22  24  25 0
 3-21G
 ****
 27  28  29  32  34  39  40  41  42  43  44  45  46  47  48  49 0
 3-21G
 ****


