%nproc=1
%NoSave
%Mem=1900MB
#P OB98/GEN NMR

erre ene a

0 1
  C      -17.153    -115.560    -556.205
  O      -17.336    -115.973    -557.542
  H      -18.031    -114.978    -555.901
  H      -16.272    -114.926    -556.113
  H      -17.062    -116.429    -555.548
  P      -16.117    -116.685    -558.313
  C      -14.842    -115.997    -560.430
  O      -15.498    -115.531    -559.257
  C      -13.622    -115.131    -560.771
  O      -14.056    -113.785    -561.103
  C      -12.607    -115.013    -559.623
  O      -11.288    -115.227    -560.136
  C      -12.765    -113.576    -559.144
  O      -11.593    -113.094    -558.494
  C      -13.153    -112.872    -560.451
  N      -13.768    -111.568    -560.231
  C      -13.309    -110.517    -561.032
  O      -12.403    -110.708    -561.844
  N      -13.860    -109.270    -560.870
  C      -14.749    -109.069    -559.951
  N      -15.249    -107.813    -559.834
  C      -15.234    -110.145    -559.046
  C      -14.711    -111.358    -559.249
  O      -16.478    -117.946    -559.021
  O      -14.989    -116.873    -557.193
  H      -11.794    -112.203    -558.115
  H      -14.352    -117.571    -557.486
  H      -15.973    -109.925    -558.294
  H      -15.010    -112.200    -558.644
  H      -12.274    -112.739    -561.096
  H      -13.599    -113.524    -558.429
  H      -12.781    -115.725    -558.819
  H      -13.153    -115.532    -561.678
  H      -14.890    -107.107    -560.469
  H      -15.560    -115.986    -561.260
  H      -15.944    -107.542    -559.150
  H      -14.508    -117.025    -560.254
  P      -10.369    -116.266    -559.323
  C       -8.446    -116.125    -557.587
  O       -9.440    -115.414    -558.321
  O       -9.343    -116.791    -560.436
  O      -11.137    -117.379    -558.696
  H       -9.625    -117.668    -560.760
  H       -7.905    -115.442    -556.965
  H       -7.770    -116.599    -558.268
  H       -8.916    -116.868    -556.977

 6  7  8  9  10  11  12  13  14  15  16  26  30  31  32  33  35 0
 6-311+G(2d,p)
 ****
 37  38 0
 6-311+G(2d,p)
 ****
 1  2  3  4  5  17  18  19  20  21  22  23  24  25 0
 3-21G
 ****
 27  28  29  34  36  39  40  41  42  43  44  45  46 0
 3-21G
 ****


