%nproc=1
%NoSave
%Mem=1900MB
#P OB98/GEN NMR

erre ene a

0 1
  C       72.816    -330.071    -897.400
  O       73.381    -328.910    -897.980
  H       73.273    -330.266    -896.430
  H       71.747    -329.908    -897.270
  H       72.967    -330.934    -898.060
  P       74.959    -328.938    -898.280
  C       75.779    -328.720    -895.820
  O       75.650    -328.099    -897.090
  C       76.478    -327.759    -894.860
  O       77.865    -327.582    -895.220
  C       75.860    -326.346    -894.820
  O       74.717    -326.287    -894.010
  C       77.024    -325.580    -894.210
  O       77.070    -325.801    -892.790
  C       78.246    -326.217    -894.900
  N       80.493    -322.019    -896.780
  C       80.193    -322.414    -895.520
  N       79.588    -323.535    -895.100
  C       79.271    -324.313    -896.140
  C       79.490    -324.061    -897.480
  C       80.151    -322.834    -897.790
  N       80.438    -322.442    -899.090
  N       79.002    -325.075    -898.270
  C       78.515    -325.956    -897.410
  N       78.643    -325.529    -896.120
  O       75.115    -327.977    -899.540
  O       75.552    -330.296    -898.510
  H       76.313    -325.333    -892.410
  H       75.968    -328.162    -900.000
  H       80.502    -321.705    -894.740
  H       78.056    -326.903    -897.680
  H       79.123    -326.271    -894.240
  H       76.938    -324.497    -894.360
  H       75.672    -325.978    -895.840
  H       76.443    -328.214    -893.850
  H       76.385    -329.632    -895.920
  H       80.724    -321.487    -899.200
  H       80.030    -322.985    -899.830
  H       74.784    -328.996    -895.450
  P       73.305    -326.011    -894.740
  C       73.221    -323.437    -895.010
  O       72.807    -324.573    -894.250
  O       72.308    -327.039    -894.010
  O       73.340    -326.237    -896.230
  H       71.563    -327.290    -894.590
  H       72.818    -322.548    -894.571
  H       72.866    -323.532    -896.015
  H       74.289    -323.380    -895.013

 6  7  8  9  10  11  12  13  14  15  25  28  32  33  34  35 0
 6-311+G(2d,p)
 ****
 36  39  40 0
 6-311+G(2d,p)
 ****
 1  2  3  4  5  16  17  18  19  20  21  22  23  24 0
 3-21G
 ****
 26  27  29  30  31  37  38  41  42  43  44  45  46  47 0
 3-21G
 ****
 48 0
 3-21G
 ****


