%nproc=1
%NoSave
%Mem=1900MB
#P OB98/GEN NMR

erre ene a

0 1
  C     -227.535     144.507     214.294
  O     -227.758     143.824     213.075
  H     -228.177     145.389     214.323
  H     -226.491     144.826     214.363
  H     -227.782     143.859     215.141
  P     -226.917     142.476     212.843
  C     -225.847     143.813     210.882
  O     -225.653     142.880     211.941
  C     -224.799     144.917     210.976
  O     -224.924     145.603     212.244
  C     -223.363     144.416     210.923
  O     -222.947     144.109     209.604
  C     -222.619     145.588     211.539
  O     -222.357     146.613     210.567
  C     -223.609     146.096     212.592
  N     -221.293     147.484     216.927
  C     -221.568     148.168     215.795
  N     -222.204     147.725     214.685
  C     -222.590     146.448     214.837
  C     -222.382     145.628     215.934
  C     -221.703     146.199     217.023
  N     -221.396     145.498     218.167
  N     -222.893     144.367     215.702
  C     -223.404     144.422     214.491
  N     -223.251     145.662     213.930
  O     -227.848     141.641     211.843
  O     -226.598     141.708     214.082
  H     -223.219     146.832     210.162
  H     -228.345     140.968     212.349
  H     -221.229     149.198     215.769
  H     -223.888     143.601     213.974
  H     -223.667     147.193     212.614
  H     -221.661     145.268     211.949
  H     -223.246     143.542     211.577
  H     -224.988     145.645     210.174
  H     -226.848     144.249     210.966
  H     -225.768     143.284     209.928
  H     -220.843     145.948     218.879
  H     -221.594     144.505     218.203
  P     -222.579     142.583     209.277
  C     -220.306     143.440     208.326
  O     -220.983     142.494     209.144
  O     -223.093     142.380     207.773
  O     -223.180     141.587     210.208
  H     -223.440     141.473     207.657
  H     -219.255     143.242     208.347
  H     -220.490     144.427     208.695
  H     -220.664     143.363     207.321

 6  7  8  9  10  11  12  13  14  15  25  28  32  33  34  35 0
 6-311+G(2d,p)
 ****
 36  37  40 0
 6-311+G(2d,p)
 ****
 1  2  3  4  5  16  17  18  19  20  21  22  23  24 0
 3-21G
 ****
 26  27  29  30  31  38  39 41  42  43  44  45  46  47  48 0
 3-21G
 ****


