%nproc=1
%NoSave
%Mem=1900MB
#P OB98/GEN NMR

erre ene a

0 1
  C      -57.554      55.511     -15.996
  O      -58.654      55.389     -16.881
  P      -58.949      54.021     -17.672
  C      -58.238      53.123     -19.991
  O      -57.992      54.061     -18.958
  C      -57.134      53.193     -21.047
  O      -55.868      52.864     -20.416
  C      -57.326      52.232     -22.228
  O      -56.819      52.888     -23.396
  C      -56.448      51.055     -21.852
  O      -56.074      50.271     -22.975
  C      -55.287      51.771     -21.155
  N      -54.530      50.888     -20.275
  C      -53.419      50.234     -20.811
  O      -53.106      50.382     -21.991
  N      -52.679      49.419     -19.992
  C      -53.064      49.206     -18.771
  N      -52.264      48.438     -17.983
  C      -54.291      49.791     -18.200
  C      -54.953      50.628     -18.992
  O      -60.386      53.769     -17.972
  O      -58.258      52.893     -16.779
  H      -55.773      50.873     -23.683
  H      -58.840      52.569     -16.048
  H      -54.585      49.560     -17.185
  H      -55.851      51.122     -18.649
  H      -54.616      52.216     -21.899
  H      -56.988      50.406     -21.154
  H      -58.374      51.966     -22.390
  H      -57.062      54.228     -21.404
  H      -51.350      48.201     -18.355
  H      -59.193      53.372     -20.463
  H      -52.316      48.496     -16.972
  H      -58.315      52.117     -19.566
  P      -57.675      52.798     -24.751
  C      -58.594      50.896     -26.256
  O      -58.021      51.258     -25.018
  O      -56.550      53.084     -25.863
  O      -58.792      53.778     -24.898
  H      -56.978      53.450     -26.659
  H      -58.754      49.814     -26.263
  H      -57.923      51.152     -27.079
  H      -59.557      51.392     -26.392
  H      -57.540      56.496     -15.577
  H      -56.644      55.339     -16.532
  H      -57.647      54.791     -15.210

 3  4  5  6  7  8  9  10  11  12  13  23  27  28  29  30  32 0
 6-311+G(2d,p)
 ****
 34  35 0
 6-311+G(2d,p)
 ****
 1  2  14  15  16  17  18  19  20  21  22  24  25  26 0
 3-21G
 ****
 31  33  36  37  38  39  40  41  42  43  44  45  46 0
 3-21G
 ****


