%nproc=1
%NoSave
%Mem=1900MB
#P OB98/GEN NMR

erre ene a

0 1
  C      107.952     218.656    -159.481
  O      108.081     217.494    -160.277
  H      108.824     218.730    -158.827
  H      107.049     218.590    -158.865
  H      107.910     219.550    -160.114
  P      106.996     217.292    -161.443
  C      104.369     217.394    -161.479
  O      105.575     217.621    -160.769
  C      103.187     217.271    -160.517
  O      103.269     215.984    -159.846
  C      103.158     218.354    -159.437
  O      101.787     218.684    -159.163
  C      103.760     217.669    -158.220
  O      103.365     218.281    -156.998
  C      103.259     216.227    -158.420
  N      104.081     215.249    -157.702
  C      103.491     214.613    -156.608
  O      102.327     214.887    -156.284
  N      104.219     213.698    -155.891
  C      105.463     213.495    -156.194
  N      106.150     212.607    -155.424
  C      106.149     214.186    -157.308
  C      105.402     215.026    -158.025
  O      106.977     215.699    -161.604
  O      107.293     218.038    -162.699
  H      103.574     217.673    -156.258
  H      106.964     215.222    -160.755
  H      107.196     213.987    -157.522
  H      105.821     215.569    -158.863
  H      102.223     216.125    -158.071
  H      104.857     217.701    -158.274
  H      103.707     219.260    -159.726
  H      102.258     217.267    -161.095
  H      105.646     212.172    -154.653
  H      104.446     216.479    -162.081
  H      107.135     212.408    -155.528
  H      104.215     218.240    -162.163
  P      101.104     219.908    -159.933
  C      101.160     222.499    -159.869
  O      101.457     221.280    -159.189
  O       99.659     219.723    -160.280
  O      101.988     220.011    -161.281
  H      101.372     220.181    -162.024
  H      101.447     223.328    -159.257
  H      100.110     222.550    -160.068
  H      101.700     222.533    -160.792

 6  7  8  9  10  11  12  13  14  15  16  26  30  31  32  33  35 0
 6-311+G(2d,p)
 ****
 37  38 0
 6-311+G(2d,p)
 ****
 1  2  3  4  5  17  18  19  20  21  22  23  24  25 0
 3-21G
 ****
 27  28  29  34  36  39  40  41  42  43  44  45  46 0
 3-21G
 ****


