%nproc=1
%NoSave
%Mem=1900MB
#P OB98/GEN NMR

erre ene a

0 1
  C     -217.981    -589.195     -57.278
  O     -218.282    -590.575     -57.233
  H     -216.899    -589.077     -57.382
  H     -218.300    -588.701     -56.357
  H     -218.467    -588.729     -58.142
  P     -219.802    -591.018     -56.961
  C     -218.980    -591.976     -54.696
  O     -219.904    -591.123     -55.363
  C     -219.678    -593.243     -54.214
  O     -218.746    -594.127     -53.553
  C     -220.789    -593.015     -53.190
  O     -221.977    -592.478     -53.759
  C     -220.974    -594.435     -52.688
  O     -221.710    -595.201     -53.662
  C     -219.511    -594.919     -52.588
  N     -218.947    -594.770     -51.243
  C     -219.257    -595.779     -50.320
  O     -219.979    -596.729     -50.644
  N     -218.782    -595.663     -49.033
  C     -218.075    -594.636     -48.694
  N     -217.665    -594.546     -47.398
  C     -217.704    -593.562     -49.644
  C     -218.173    -593.691     -50.891
  O     -220.286    -592.213     -57.720
  O     -220.657    -589.693     -57.251
  H     -222.576    -594.773     -53.762
  H     -221.613    -589.921     -57.110
  H     -217.119    -592.718     -49.309
  H     -217.954    -592.932     -51.636
  H     -219.423    -595.970     -52.895
  H     -221.532    -594.489     -51.742
  H     -220.442    -592.388     -52.364
  H     -220.052    -593.773     -55.100
  H     -217.977    -595.280     -46.766
  H     -218.547    -591.417     -53.854
  H     -217.361    -593.663     -46.998
  H     -218.172    -592.264     -55.378
  P     -222.454    -591.022     -53.269
  C     -224.703    -591.905     -52.298
  O     -223.472    -591.253     -52.044
  O     -223.396    -590.540     -54.466
  O     -221.356    -590.043     -52.974
  H     -222.905    -590.004     -55.114
  H     -225.261    -591.980     -51.388
  H     -224.515    -592.885     -52.683
  H     -225.264    -591.342     -53.015

 6  7  8  9  10  11  12  13  14  15  16  26  30  31  32  33  35 0
 6-311+G(2d,p)
 ****
 37  38 0
 6-311+G(2d,p)
 ****
 1  2  3  4  5  17  18  19  20  21  22  23  24  25 0
 3-21G
 ****
 27  28  29  34  36  39  40  41  42  43  44  45  46 0
 3-21G
 ****


