%nproc=1
%NoSave
%Mem=1900MB
#P OB98/GEN NMR

erre ene a

0 1
  C     -320.508    -652.400    -153.908
  O     -321.794    -652.842    -154.302
  H     -319.786    -652.690    -154.680
  H     -320.216    -652.870    -152.965
  H     -320.501    -651.311    -153.804
  P     -322.988    -652.610    -153.258
  C     -324.789    -652.882    -155.116
  O     -324.285    -653.337    -153.868
  C     -325.942    -653.785    -155.559
  O     -325.426    -655.068    -155.980
  C     -326.946    -654.094    -154.454
  O     -327.863    -653.031    -154.231
  C     -327.623    -655.331    -155.020
  O     -328.678    -654.988    -155.928
  C     -326.469    -656.042    -155.749
  N     -325.984    -657.200    -155.002
  C     -326.940    -658.173    -154.713
  O     -328.119    -658.091    -155.056
  N     -326.497    -659.239    -153.975
  C     -325.239    -659.399    -153.465
  O     -324.928    -660.349    -152.762
  C     -324.279    -658.329    -153.787
  C     -324.688    -657.290    -154.524
  O     -323.319    -651.053    -153.416
  O     -322.672    -652.978    -151.848
  H     -322.986    -650.567    -152.641
  H     -329.385    -654.589    -155.384
  H     -327.169    -659.957    -153.753
  H     -323.274    -658.419    -153.400
  H     -324.004    -656.484    -154.768
  H     -326.796    -656.389    -156.738
  H     -328.060    -655.932    -154.223
  H     -326.420    -654.365    -153.533
  H     -326.439    -653.316    -156.416
  H     -323.998    -652.928    -155.873
  H     -325.121    -651.849    -155.011
  P     -328.635    -652.998    -152.825
  C     -329.208    -650.440    -153.124
  O     -329.671    -651.782    -152.928
  O     -327.474    -652.471    -151.860
  O     -329.221    -654.323    -152.454
  H     -326.821    -651.932    -152.338
  H     -330.046    -649.776    -153.166
  H     -328.660    -650.382    -154.041
  H     -328.572    -650.160    -152.311

 6  7  8  9  10  11  12  13  14  15  16  27  31  32  33  34  35 0
 6-311+G(2d,p)
 ****
 36  37 0
 6-311+G(2d,p)
 ****
 1  2  3  4  5  17  18  19  20  21  22  23  24  25 0
 3-21G
 ****
 26  28  29  30  38  39  40  41  42  43  44  45 0
 3-21G
 ****


