%nproc=1
%NoSave
%Mem=1900MB
#P OB98/GEN NMR

erre ene a

0 1
  C     -736.730      17.956     885.254
  O     -737.488      16.749     885.505
  P     -736.844      15.491     886.269
  C     -738.694      15.341     888.070
  O     -738.043      14.672     886.991
  C     -739.801      14.469     888.683
  O     -740.904      14.361     887.743
  C     -739.400      13.052     889.018
  O     -738.664      13.017     890.236
  C     -740.748      12.328     889.073
  O     -741.400      12.568     890.326
  C     -741.503      13.036     887.927
  N     -743.517       9.124     885.316
  C     -743.782       9.625     886.536
  N     -743.197      10.667     887.164
  C     -742.253      11.230     886.381
  C     -741.871      10.819     885.116
  C     -742.526       9.702     884.558
  N     -742.247       9.176     883.337
  N     -740.840      11.614     884.635
  C     -740.634      12.516     885.587
  N     -741.476      12.318     886.659
  O     -735.698      15.827     887.160
  O     -736.389      14.502     885.102
  H     -740.801      12.295     891.028
  H     -735.625      13.961     885.414
  H     -744.565       9.117     887.090
  H     -739.905      13.298     885.552
  H     -742.557      13.198     888.182
  H     -740.653      11.253     888.942
  H     -738.789      12.628     888.204
  H     -740.181      14.994     889.569
  H     -739.123      16.276     887.714
  H     -742.742       8.362     883.023
  H     -741.474       9.594     882.804
  H     -737.956      15.574     888.832
  P     -737.064      12.943     890.244
  C     -736.643      14.136     892.467
  O     -736.580      12.916     891.768
  O     -736.372      13.971     889.378
  O     -736.738      11.453     889.724
  H     -735.902      11.457     889.229
  H     -735.758      14.739     892.209
  H     -736.619      13.916     893.558
  H     -737.550      14.697     892.239
  H     -737.345      18.662     884.736
  H     -735.874      17.722     884.656
  H     -736.410      18.376     886.185

 3  4  5  6  7  8  9  10  11  12  22  25  29  30  31  32 0
 6-311+G(2d,p)
 ****
 33  36  37 0
 6-311+G(2d,p)
 ****
 1  2  13  14  15  16  17  18  19  20  21  23  24  26 0
 3-21G
 ****
 27  28  34  35  38  39  40  41  42  43  44  45  46  47  48 0
 3-21G
 ****


