%nproc=1
%NoSave
%Mem=1900MB
#P OB98/GEN NMR

erre ene a

0 1
  C     -168.596     225.727     -13.909
  O     -168.820     224.547     -13.130
  P     -168.553     223.137     -13.860
  C     -169.035     222.130     -16.215
  O     -169.190     223.233     -15.332
  C     -170.317     221.883     -17.004
  O     -171.324     221.263     -16.181
  C     -170.973     223.146     -17.547
  O     -170.335     223.600     -18.733
  C     -172.378     222.645     -17.848
  O     -172.398     221.987     -19.131
  C     -172.620     221.629     -16.720
  N     -176.879     221.019     -14.034
  C     -176.375     220.270     -15.084
  N     -177.102     219.191     -15.447
  N     -175.267     220.555     -15.711
  C     -174.632     221.645     -15.220
  C     -175.030     222.471     -14.191
  C     -176.279     222.163     -13.523
  O     -176.782     222.814     -12.611
  N     -174.121     223.476     -13.973
  C     -173.160     223.243     -14.849
  N     -173.432     222.151     -15.638
  O     -169.547     222.143     -13.094
  O     -167.137     222.677     -13.793
  H     -171.774     221.239     -19.076
  H     -169.203     221.232     -13.133
  H     -177.744     220.761     -13.591
  H     -172.254     223.827     -14.947
  H     -173.086     220.709     -17.091
  H     -173.116     223.451     -17.894
  H     -177.925     218.870     -14.961
  H     -171.013     223.929     -16.776
  H     -176.729     218.608     -16.190
  H     -170.079     221.200     -17.834
  H     -168.778     221.232     -15.645
  H     -168.191     222.329     -16.886
  P     -169.696     225.074     -18.702
  C     -170.671     227.420     -18.168
  O     -170.935     226.076     -18.509
  O     -169.243     225.304     -20.220
  O     -168.562     225.237     -17.744
  H     -168.481     225.914     -20.255
  H     -169.835     227.820     -18.748
  H     -170.442     227.491     -17.097
  H     -171.563     228.018     -18.380
  H     -168.807     226.592     -13.315
  H     -169.238     225.717     -14.765
  H     -167.575     225.754     -14.229

 3  4  5  6  7  8  9  10  11  12  23  26  30  31  33  0
 6-311+G(2d,p)
 ****
 35  36  37  38 0
 6-311+G(2d,p)
 ****
 1  2  13  14  15  16  17  18  19  20  21  22  24  25  27  28  29 0
 3-21G
 ****
 32  34  39  40  41  42  43  44  45  46  47  48  49 0
 3-21G
 ****


