%nproc=1
%NoSave
%Mem=1900MB
#P OB98/GEN NMR

erre ene a

0 1
  C     1463.736    -323.711     224.598
  O     1463.152    -323.445     223.336
  H     1464.693    -324.221     224.437
  H     1463.083    -324.356     225.183
  H     1463.925    -322.767     225.126
  P     1461.714    -322.719     223.352
  C     1459.359    -323.541     224.032
  O     1460.684    -323.902     223.712
  C     1458.582    -324.735     224.583
  O     1459.159    -325.172     225.831
  C     1457.120    -324.489     224.843
  O     1456.360    -324.621     223.656
  C     1456.788    -325.601     225.844
  O     1456.574    -326.832     225.114
  C     1458.091    -325.706     226.658
  N     1456.608    -325.814     231.584
  C     1456.294    -326.615     230.533
  N     1456.675    -326.500     229.232
  C     1457.484    -325.420     229.080
  C     1457.895    -324.528     230.055
  C     1457.424    -324.752     231.356
  N     1457.736    -323.931     232.423
  N     1458.681    -323.527     229.516
  C     1458.827    -323.868     228.251
  N     1458.087    -324.984     227.923
  O     1461.392    -321.903     222.147
  O     1461.795    -321.910     224.728
  H     1456.427    -327.529     225.799
  H     1462.216    -322.448     225.423
  H     1455.669    -327.470     230.756
  H     1459.471    -323.371     227.532
  H     1458.352    -326.748     226.886
  H     1455.890    -325.400     226.420
  H     1456.943    -323.503     225.346
  H     1458.716    -325.568     223.869
  H     1458.837    -323.132     223.159
  H     1457.210    -324.075     233.272
  H     1458.220    -323.054     232.224
  H     1459.406    -322.748     224.808
  P     1455.155    -323.600     223.299
  C     1453.432    -322.551     224.887
  O     1454.146    -323.733     224.558
  O     1454.558    -323.809     221.956
  O     1455.807    -322.144     223.501
  H     1455.223    -321.488     223.068
  H     1452.796    -322.740     225.727
  H     1452.837    -322.249     224.050
  H     1454.124    -321.773     225.132

 6  7  8  9  10  11  12  13  14  15  25  28  32  33  34  35 0
 6-311+G(2d,p)
 ****
 36  39  40 0
 6-311+G(2d,p)
 ****
 1  2  3  4  5  16  17  18  19  20  21  22  23  24 0
 3-21G
 ****
 26  27  29  30  31  37  38  41  42  43  44  45  46  47 0
 3-21G
 ****
 48 0
 3-21G
 ****


