%nproc=1
%NoSave
%Mem=1900MB
#P OB98/GEN NMR

erre ene a

0 1
  C     -211.856     239.038    -148.385
  O     -210.648     238.497    -147.842
  P     -209.799     239.477    -146.892
  C     -207.557     239.647    -148.182
  O     -208.246     239.107    -147.061
  C     -206.036     239.589    -147.987
  O     -205.556     240.762    -147.274
  C     -205.562     238.361    -147.203
  O     -204.290     237.980    -147.750
  C     -205.360     238.913    -145.806
  O     -204.520     238.064    -145.023
  C     -204.779     240.283    -146.150
  N     -202.164     242.176    -142.267
  C     -201.851     241.151    -143.131
  N     -200.636     240.571    -142.972
  N     -202.652     240.723    -144.076
  C     -203.811     241.422    -144.143
  C     -204.230     242.468    -143.354
  C     -203.346     242.911    -142.297
  O     -203.575     243.818    -141.506
  N     -205.463     242.939    -143.757
  C     -205.806     242.121    -144.740
  N     -204.819     241.228    -145.048
  O     -210.159     238.962    -145.420
  O     -210.135     240.921    -147.072
  H     -204.946     237.180    -144.988
  H     -210.826     239.542    -145.014
  H     -201.514     242.457    -141.548
  H     -206.740     242.156    -145.274
  H     -203.724     240.222    -146.462
  H     -206.324     239.014    -145.295
  H     -199.952     240.883    -142.298
  H     -206.251     237.511    -147.229
  H     -200.366     239.841    -143.620
  H     -205.568     239.597    -148.982
  H     -207.859     240.689    -148.336
  H     -207.863     239.108    -149.083
  P     -204.280     237.005    -149.018
  C     -203.053     235.022    -147.891
  O     -203.011     236.039    -148.872
  O     -203.869     237.983    -150.222
  O     -205.584     236.331    -149.294
  H     -204.377     237.743    -151.021
  H     -202.390     234.206    -148.200
  H     -204.059     234.631    -147.755
  H     -202.690     235.428    -146.938
  H     -212.333     238.301    -148.997
  H     -211.627     239.899    -148.977
  H     -212.512     239.318    -147.587

 3  4  5  6  7  8  9  10  11  12  23  26  30  31 0
 6-311+G(2d,p)
 ****
 33  35  36  37  38 0
 6-311+G(2d,p)
 ****
 1  2  13  14  15  16  17  18  19  20  21  22  24  25 0
 3-21G
 ****
 27  28  29  32  34  39  40  41  42  43  44  45  46  47  48  49 0
 3-21G
 ****


