%nproc=1
%NoSave
%Mem=1900MB
#P OB98/GEN NMR

erre ene a

0 1
  C      609.399     397.045    -713.105
  O      610.467     396.122    -713.010
  H      608.840     397.035    -712.166
  H      608.727     396.751    -713.914
  H      609.775     398.056    -713.283
  P      611.533     396.129    -714.210
  C      614.024     395.442    -714.428
  O      612.953     395.765    -713.558
  C      615.364     395.690    -713.742
  O      615.482     397.080    -713.363
  C      615.568     394.883    -712.458
  O      616.027     393.565    -712.733
  C      616.651     395.706    -711.778
  O      617.928     395.439    -712.399
  C      616.199     397.137    -712.095
  N      616.017     400.061    -707.954
  C      617.099     399.674    -708.713
  N      618.306     400.111    -708.319
  N      617.008     398.910    -709.775
  C      615.738     398.531    -710.060
  C      614.586     398.857    -709.375
  C      614.698     399.704    -708.213
  O      613.769     400.099    -707.510
  N      613.479     398.295    -709.967
  C      613.966     397.612    -710.984
  N      615.335     397.721    -711.083
  O      611.679     397.687    -714.567
  O      611.153     395.328    -715.410
  H      618.032     394.469    -712.427
  H      611.809     397.779    -715.532
  H      616.147     400.640    -707.142
  H      613.379     397.035    -711.681
  H      617.042     397.825    -712.227
  H      616.751     395.471    -710.718
  H      618.462     400.657    -707.483
  H      614.669     394.878    -711.839
  H      619.117     399.865    -708.878
  H      616.168     395.476    -714.460
  H      613.964     396.064    -715.329
  H      613.943     394.390    -714.719
  P      616.343     392.607    -711.480
  C      616.664     390.039    -711.235
  O      616.123     391.110    -712.006
  O      615.086     392.851    -710.515
  O      617.640     392.881    -710.794
  H      615.321     392.631    -709.600
  H      616.437     389.107    -711.710
  H      616.235     390.053    -710.255
  H      617.725     390.153    -711.162

 6  7  8  9  10  11  12  13  14  15  26  29  33  34 0
 6-311+G(2d,p)
 ****
 36  38  39  40  41 0
 6-311+G(2d,p)
 ****
 1  2  3  4  5  16  17  18  19  20  21  22  23  24  25 0
 3-21G
 ****
 27  28  30  31  32  35  37  42  43  44  45  46  47 0
 3-21G
 ****
 48  49 0
 3-21G
 ****


