%nproc=1
%NoSave
%Mem=1900MB
#P OB98/GEN NMR

erre ene a

0 1
  C      302.296     284.593     -72.418
  O      302.583     285.996     -72.417
  P      301.536     286.961     -71.680
  C      301.503     288.690     -73.628
  O      300.757     287.813     -72.789
  C      300.585     289.326     -74.677
  O      300.161     288.358     -75.652
  C      299.300     289.881     -74.088
  O      299.539     291.129     -73.457
  C      298.400     289.975     -75.316
  O      298.525     291.248     -75.972
  C      298.927     288.837     -76.220
  N      297.965     287.758     -76.381
  C      296.692     288.136     -76.814
  O      296.430     289.325     -77.013
  N      295.739     287.161     -76.985
  C      296.032     285.924     -76.721
  N      295.046     285.001     -76.910
  C      297.355     285.488     -76.240
  C      298.270     286.446     -76.089
  O      302.476     288.047     -70.972
  O      300.663     286.260     -70.689
  H      298.047     291.153     -76.821
  H      302.077     288.348     -70.137
  H      297.549     284.444     -76.029
  H      299.268     286.219     -75.738
  H      299.170     289.225     -77.215
  H      297.345     289.860     -75.043
  H      298.877     289.168     -73.369
  H      301.139     290.125     -75.187
  H      294.151     285.340     -77.237
  H      302.309     288.144     -74.121
  H      295.162     284.016     -76.727
  H      301.979     289.456     -73.007
  P      299.806     291.129     -71.879
  C      297.257     290.894     -71.702
  O      298.508     290.434     -71.239
  O      299.577     292.670     -71.500
  O      301.131     290.629     -71.406
  H      299.805     292.824     -70.566
  H      296.479     290.209     -71.351
  H      297.234     290.915     -72.793
  H      297.055     291.893     -71.305
  H      303.071     284.071     -72.940
  H      301.359     284.421     -72.905
  H      302.244     284.239     -71.410

 3  4  5  6  7  8  9  10  11  12  13  21  23  27  28  29  30  32 0
 6-311+G(2d,p)
 ****
 34  35 0
 6-311+G(2d,p)
 ****
 1  2  14  15  16  17  18  19  20  22  24  25  26 0
 3-21G
 ****
 31  33  36  37  38  39  40  41  42  43  44  45  46 0
 3-21G
 ****


