%nproc=1
%NoSave
%Mem=1900MB
#P OB98/GEN NMR

erre ene a

0 1
  C     -100.149    -285.880      46.757
  O      -99.508    -286.528      47.842
  H      -99.772    -286.307      45.823
  H      -99.923    -284.810      46.772
  H     -101.229    -286.036      46.809
  P      -99.945    -286.057      49.313
  C      -97.552    -285.087      49.507
  O      -98.558    -285.898      50.102
  C      -96.163    -285.579      49.906
  O      -95.147    -284.890      49.157
  C      -95.817    -285.359      51.375
  O      -96.390    -286.370      52.188
  C      -94.299    -285.467      51.327
  O      -93.913    -286.856      51.290
  C      -93.955    -284.792      49.985
  N      -90.168    -281.535      51.173
  C      -90.294    -282.869      51.349
  N      -91.348    -283.662      51.049
  C      -92.344    -282.943      50.509
  C      -92.361    -281.579      50.266
  C      -91.203    -280.862      50.614
  N      -91.073    -279.503      50.421
  N      -93.560    -281.195      49.703
  C      -94.236    -282.317      49.559
  N      -93.558    -283.399      50.064
  O     -100.991    -286.886      49.974
  O     -100.357    -284.534      49.035
  H      -94.563    -287.327      50.737
  H      -99.752    -284.128      48.389
  H      -89.437    -283.367      51.791
  H      -95.205    -282.402      49.082
  H      -93.149    -285.319      49.460
  H      -93.823    -285.028      52.206
  H      -96.091    -284.351      51.704
  H      -96.096    -286.644      49.644
  H      -97.681    -284.038      49.810
  H      -90.286    -279.045      50.851
  H      -91.887    -278.986      50.122
  H      -97.678    -285.151      48.422
  P      -97.743    -286.088      53.007
  C      -96.471    -284.362      54.426
  O      -97.295    -285.521      54.440
  O      -98.697    -287.229      53.064
  O      -98.385    -284.808      52.295
  H      -99.360    -284.894      52.259
  H      -96.238    -284.078      55.431
  H      -96.989    -283.562      53.940
  H      -95.566    -284.574      53.896

 6  7  8  9  10  11  12  13  14  15  25  28  32  33  34  35 0
 6-311+G(2d,p)
 ****
 36  39  40 0
 6-311+G(2d,p)
 ****
 1  2  3  4  5  16  17  18  19  20  21  22  23  24 0
 3-21G
 ****
 26  27  29  30  31  37  38  41  42  43  44  45  46  47 0
 3-21G
 ****
 48 0
 3-21G
 ****


