%nproc=1
%NoSave
%Mem=1900MB
#P OB98/GEN NMR

erre ene a

0 1
  C      128.038    -460.171      67.137
  O      129.247    -459.415      67.023
  P      130.577    -460.036      67.658
  C      130.890    -458.821      69.941
  O      130.456    -459.983      69.271
  C      130.975    -459.029      71.461
  O      132.054    -459.951      71.789
  C      131.243    -457.747      72.264
  O      130.642    -457.874      73.540
  C      132.754    -457.777      72.427
  O      133.188    -456.916      73.487
  C      132.973    -459.276      72.660
  N      137.714    -459.233      74.420
  C      136.557    -458.692      74.948
  N      136.670    -458.056      76.144
  N      135.386    -458.742      74.364
  C      135.424    -459.432      73.186
  C      136.485    -460.006      72.554
  C      137.777    -459.913      73.196
  O      138.829    -460.352      72.771
  N      136.134    -460.585      71.359
  C      134.824    -460.366      71.284
  N      134.343    -459.691      72.361
  O      131.692    -458.904      67.336
  O      130.979    -461.355      67.080
  H      134.161    -457.039      73.570
  H      132.288    -459.212      66.647
  H      138.582    -459.134      74.904
  H      134.189    -460.646      70.448
  H      132.748    -459.568      73.685
  H      133.248    -457.445      71.502
  H      137.536    -458.020      76.680
  H      130.896    -456.824      71.784
  H      135.827    -457.681      76.565
  H      130.035    -459.500      71.796
  H      130.191    -457.973      69.734
  H      131.854    -458.497      69.526
  P      129.347    -456.975      73.821
  C      130.139    -455.210      75.566
  O      129.876    -455.512      74.194
  O      128.802    -457.544      75.246
  O      128.301    -457.043      72.770
  H      127.842    -457.377      75.330
  H      131.226    -455.225      75.737
  H      129.640    -455.911      76.228
  H      129.763    -454.187      75.758
  H      127.237    -459.636      66.670
  H      127.809    -460.324      68.171
  H      128.163    -461.118      66.655

 3  4  5  6  7  8  9  10  11  12  23  26  30  31 0
 6-311+G(2d,p)
 ****
 33  35  36  37  38 0
 6-311+G(2d,p)
 ****
 1  2  13  14  15  16  17  18  19  20  21  22  24  25 0
 3-21G
 ****
 27  28  29  32  34  39  40  41  42  43  44  45  46  47  48  49 0
 3-21G
 ****


