%nproc=1
%NoSave
%Mem=1900MB
#P OB98/GEN NMR

erre ene a

0 1
  C     -155.469      41.659     103.413
  O     -156.866      41.452     103.423
  P     -157.570      40.261     104.220
  C     -157.792      38.945     101.989
  O     -157.403      38.914     103.358
  C     -157.619      37.591     101.284
  O     -156.229      37.214     101.300
  C     -158.374      36.499     102.051
  O     -159.758      36.306     101.840
  C     -157.518      35.248     101.896
  O     -157.994      34.384     100.860
  C     -156.137      35.802     101.541
  N     -154.386      32.644     105.099
  C     -155.266      32.387     104.066
  N     -155.896      31.192     104.111
  N     -155.518      33.235     103.102
  C     -154.885      34.423     103.250
  C     -153.980      34.789     104.221
  C     -153.681      33.827     105.257
  O     -152.970      34.046     106.236
  N     -153.596      36.098     104.096
  C     -154.298      36.541     103.073
  N     -155.124      35.571     102.552
  O     -158.900      40.556     104.836
  O     -156.523      40.022     105.426
  H     -158.123      34.922     100.058
  H     -157.037      39.761     106.214
  H     -154.292      31.981     105.858
  H     -154.272      37.556     102.692
  H     -155.767      35.351     100.611
  H     -157.529      34.656     102.819
  H     -155.837      30.581     104.910
  H     -158.302      36.757     103.116
  H     -156.669      31.041     103.469
  H     -157.899      37.659     100.229
  H     -157.191      39.716     101.496
  H     -158.837      39.257     101.914
  P     -160.811      35.742     102.903
  C     -160.634      33.458     101.760
  O     -160.633      34.151     102.995
  O     -162.230      35.898     102.175
  O     -160.820      36.448     104.219
  H     -162.942      35.916     102.843
  H     -160.812      32.398     101.947
  H     -159.658      33.574     101.273
  H     -161.415      33.839     101.095
  H     -155.239      42.514     102.813
  H     -154.984      40.797     103.006
  H     -155.126      41.823     104.413

 3  4  5  6  7  8  9  10  11  12  23  26  30  31 0
 6-311+G(2d,p)
 ****
 33  35  36  37  38 0
 6-311+G(2d,p)
 ****
 1  2  13  14  15  16  17  18  19  20  21  22  24  25 0
 3-21G
 ****
 27  28  29  32  34  39  40  41  42  43  44  45  46  47  48  49 0
 3-21G
 ****


