%nproc=1
%NoSave
%Mem=1900MB
#P OB98/GEN NMR

erre ene a

0 1
  C     -421.040    -648.588    -221.175
  O     -419.988    -648.026    -220.421
  H     -421.570    -649.314    -220.553
  H     -420.641    -649.106    -222.053
  H     -421.748    -647.813    -221.494
  P     -419.129    -646.829    -221.054
  C     -418.005    -645.516    -219.139
  O     -417.878    -646.579    -220.076
  C     -416.951    -645.670    -218.045
  O     -417.306    -646.749    -217.155
  C     -415.559    -645.994    -218.567
  O     -414.945    -644.845    -219.118
  C     -414.905    -646.528    -217.299
  O     -414.496    -645.455    -216.436
  C     -416.070    -647.323    -216.662
  N     -416.002    -648.762    -216.948
  C     -414.795    -649.377    -216.654
  O     -413.821    -648.785    -216.184
  N     -414.720    -650.716    -216.959
  C     -415.683    -651.442    -217.598
  O     -415.499    -652.566    -218.052
  C     -416.968    -650.749    -217.810
  C     -417.057    -649.455    -217.494
  O     -419.901    -645.601    -221.418
  O     -418.451    -647.498    -222.342
  H     -418.943    -647.234    -223.143
  H     -414.242    -645.863    -215.583
  H     -413.828    -651.168    -216.796
  H     -417.780    -651.308    -218.263
  H     -417.984    -648.919    -217.673
  H     -416.074    -647.190    -215.572
  H     -414.012    -647.126    -217.507
  H     -415.612    -646.799    -219.304
  H     -416.940    -644.735    -217.454
  H     -419.005    -645.560    -218.695
  H     -417.883    -644.564    -219.666
  P     -413.856    -644.968    -220.282
  C     -414.020    -642.512    -220.982
  O     -413.171    -643.528    -220.482
  O     -414.341    -645.602    -221.542
  O     -412.673    -645.838    -219.625
  H     -412.477    -646.605    -220.204
  H     -413.468    -641.600    -221.077
  H     -414.837    -642.366    -220.307
  H     -414.397    -642.802    -221.941

 6  7  8  9  10  11  12  13  14  15  16  27  31  32  33  34  35 0
 6-311+G(2d,p)
 ****
 36  37 0
 6-311+G(2d,p)
 ****
 1  2  3  4  5  17  18  19  20  21  22  23  24  25 0
 3-21G
 ****
 26  28  29  30  38  39  40  41  42  43  44  45 0
 3-21G
 ****


