%nproc=1
%NoSave
%Mem=1900MB
#P OB98/GEN NMR

erre ene a

0 1
  C      835.387    -490.407     985.162
  O      834.091    -490.444     985.752
  P      833.745    -491.483     986.933
  C      833.439    -494.029     987.074
  O      833.793    -492.931     986.243
  C      832.240    -494.802     986.427
  O      832.748    -495.563     985.310
  C      831.538    -495.808     987.343
  O      830.543    -495.249     988.196
  C      830.893    -496.708     986.296
  O      829.704    -496.057     985.800
  C      831.948    -496.777     985.196
  N      831.977    -501.833     985.929
  C      830.976    -500.920     985.811
  N      831.044    -499.608     985.649
  C      832.321    -499.196     985.558
  C      833.448    -500.005     985.649
  C      833.268    -501.380     985.875
  N      834.284    -502.279     985.946
  N      834.608    -499.258     985.499
  C      834.183    -498.004     985.336
  N      832.809    -497.935     985.341
  O      832.495    -491.172     987.687
  O      835.064    -491.473     987.859
  H      829.051    -495.980     986.545
  H      834.870    -491.878     988.738
  H      829.958    -501.343     985.903
  H      834.783    -497.140     985.183
  H      831.528    -496.774     984.186
  H      830.562    -497.659     986.707
  H      832.272    -496.396     987.911
  H      831.512    -494.066     986.034
  H      833.103    -493.625     988.054
  H      834.020    -503.266     985.972
  H      835.249    -501.969     985.706
  H      834.280    -494.684     987.209
  P      830.515    -495.758     989.732
  C      830.076    -498.089     990.843
  O      830.006    -497.282     989.663
  O      829.771    -494.849     990.656
  O      832.085    -495.901     990.083
  H      832.552    -496.628     989.585
  H      829.529    -499.000     990.627
  H      829.596    -497.598     991.684
  H      831.120    -498.347     991.040
  H      835.412    -489.654     984.402
  H      835.608    -491.359     984.727
  H      836.114    -490.180     985.913

 3  4  5  6  7  8  9  10  11  12  22  25  29  30  31  32 0
 6-311+G(2d,p)
 ****
 33  36  37 0
 6-311+G(2d,p)
 ****
 1  2  13  14  15  16  17  18  19  20  21  23  24  26 0
 3-21G
 ****
 27  28  34  35  38  39  40  41  42  43  44  45  46  47  48 0
 3-21G
 ****


