%nproc=1
%NoSave
%Mem=1900MB
#P OB98/GEN NMR

erre ene a

0 1
  C       49.298       3.440      35.614
  O       48.886       2.729      36.783
  P       49.552       1.318      37.158
  C       47.441      -0.111      36.936
  O       48.742       0.143      36.418
  C       46.972      -1.555      36.724
  O       47.092      -1.941      35.333
  C       47.725      -2.604      37.549
  O       46.768      -3.622      37.855
  C       48.757      -3.111      36.560
  O       49.299      -4.372      36.931
  C       47.945      -3.098      35.258
  N       48.797      -3.069      34.073
  C       49.465      -4.250      33.746
  O       49.372      -5.238      34.474
  N       50.264      -4.270      32.629
  C       50.455      -3.177      31.957
  N       51.276      -3.253      30.876
  C       49.837      -1.886      32.318
  C       49.020      -1.910      33.369
  O       49.769       1.097      38.619
  O       50.955       1.340      36.381
  H       48.559      -4.959      37.195
  H       51.607       0.811      36.879
  H       50.046      -0.996      31.743
  H       48.514      -1.014      33.710
  H       47.299      -3.983      35.197
  H       49.588      -2.399      36.495
  H       48.173      -2.201      38.460
  H       45.903      -1.590      36.969
  H       51.701      -4.151      30.678
  H       46.735       0.570      36.449
  H       51.582      -2.445      30.355
  H       47.431       0.129      38.005
  P       46.389      -4.006      39.361
  C       48.466      -5.498      39.351
  O       47.733      -4.518      40.062
  O       45.223      -4.931      39.499
  O       46.105      -2.604      40.086
  H       45.605      -2.762      40.907
  H       49.450      -5.609      39.812
  H       48.595      -5.203      38.305
  H       47.942      -6.456      39.396
  H       48.742       4.351      35.536
  H       49.118       2.838      34.748
  H       50.342       3.664      35.682

 3  4  5  6  7  8  9  10  11  12  13  23  27  28  29  30  32 0
 6-311+G(2d,p)
 ****
 34  35 0
 6-311+G(2d,p)
 ****
 1  2  14  15  16  17  18  19  20  21  22  24  25  26 0
 3-21G
 ****
 31  33  36  37  38  39  40  41  42  43  44  45  46 0
 3-21G
 ****


