%nproc=1
%NoSave
%Mem=1900MB
#P OB98/GEN NMR

erre ene a

0 1
  C      174.150    -117.727     170.760
  O      173.328    -118.460     169.867
  P      171.912    -117.835     169.456
  C      169.730    -117.234     170.734
  O      170.902    -118.038     170.688
  C      169.232    -117.077     172.174
  O      170.167    -116.257     172.927
  C      167.857    -116.411     172.278
  O      167.143    -116.966     173.394
  C      168.185    -114.969     172.620
  O      167.091    -114.324     173.267
  C      169.423    -115.163     173.498
  N      169.470    -110.245     174.674
  C      168.532    -111.212     174.982
  N      167.419    -110.790     175.618
  N      168.678    -112.480     174.703
  C      169.841    -112.756     174.059
  C      170.852    -111.888     173.714
  C      170.673    -110.486     174.022
  O      171.450    -109.573     173.747
  N      171.894    -112.545     173.106
  C      171.496    -113.799     173.039
  N      170.245    -113.973     173.575
  O      171.373    -118.865     168.354
  O      171.979    -116.451     168.903
  H      166.345    -114.328     172.634
  H      171.455    -118.471     167.466
  H      169.306    -109.278     174.900
  H      172.062    -114.613     172.603
  H      169.149    -115.447     174.522
  H      168.423    -114.410     171.706
  H      167.213    -109.815     175.801
  H      167.237    -116.501     171.376
  H      166.695    -111.468     175.817
  H      169.220    -118.067     172.647
  H      168.952    -117.701     170.134
  H      169.949    -116.251     170.302
  P      166.023    -118.061     173.041
  C      163.609    -117.892     172.066
  O      164.698    -117.231     172.686
  O      165.689    -118.720     174.461
  O      166.450    -119.073     172.028
  H      165.348    -119.626     174.342
  H      162.751    -117.860     172.740
  H      163.840    -118.937     171.832
  H      163.358    -117.368     171.143
  H      175.055    -118.269     170.938
  H      173.632    -117.584     171.685
  H      174.383    -116.775     170.331

 3  4  5  6  7  8  9  10  11  12  23  26  30  31 0
 6-311+G(2d,p)
 ****
 33  35  36  37  38 0
 6-311+G(2d,p)
 ****
 1  2  13  14  15  16  17  18  19  20  21  22  24  25 0
 3-21G
 ****
 27  28  29  32  34  39  40  41  42  43  44  45  46  47  48  49 0
 3-21G
 ****


