%nproc=1
%NoSave
%Mem=1900MB
#P OB98/GEN NMR

erre ene a

0 1
  C     -892.460     -58.711    -660.531
  O     -892.880     -57.663    -659.677
  H     -891.540     -58.421    -661.016
  H     -893.220     -58.897    -661.300
  H     -892.290     -59.625    -659.956
  P     -894.260     -57.826    -658.865
  C     -896.740     -57.513    -659.510
  O     -895.430     -57.799    -659.969
  C     -897.770     -58.250    -660.366
  O     -897.770     -57.741    -661.717
  C     -897.530     -59.765    -660.474
  O     -898.040     -60.423    -659.319
  C     -898.340     -60.069    -661.732
  O     -899.740     -60.101    -661.405
  C     -898.020     -58.857    -662.612
  N     -896.410     -60.314    -667.206
  C     -897.660     -60.411    -666.631
  N     -898.610     -61.034    -667.382
  N     -897.950     -59.982    -665.429
  C     -896.890     -59.457    -664.789
  C     -895.600     -59.304    -665.235
  C     -895.300     -59.735    -666.597
  O     -894.200     -59.629    -667.153
  N     -894.760     -58.816    -664.263
  C     -895.560     -58.618    -663.231
  N     -896.870     -59.002    -663.492
  O     -894.480     -56.871    -657.735
  O     -894.250     -59.351    -658.388
  H     -900.000     -59.179    -661.181
  H     -893.860     -59.434    -657.486
  H     -896.240     -60.677    -668.135
  H     -895.260     -58.207    -662.276
  H     -898.860     -58.576    -663.251
  H     -898.080     -61.047    -662.164
  H     -898.410     -61.516    -668.238
  H     -896.480     -59.983    -660.652
  H     -899.510     -61.185    -666.951
  H     -898.770     -58.044    -659.946
  H     -896.900     -56.428    -659.574
  H     -896.850     -57.814    -658.461
  P     -897.440     -61.836    -658.845
  C     -897.840     -64.299    -659.529
  O     -898.100     -62.935    -659.814
  O     -897.590     -62.117    -657.377
  O     -895.910     -61.807    -659.340
  H     -895.310     -61.352    -658.715
  H     -898.338     -64.915    -660.249
  H     -898.200     -64.533    -658.549
  H     -896.786     -64.478    -659.574

 6  7  8  9  10  11  12  13  14  15  26  29  33  34 0
 6-311+G(2d,p)
 ****
 36  38  39  40  41 0
 6-311+G(2d,p)
 ****
 1  2  3  4  5  16  17  18  19  20  21  22  23  24  25 0
 3-21G
 ****
 27  28  30  31  32  35  37  42  43  44  45  46  47 0
 3-21G
 ****
 48  49 0
 3-21G
 ****


