%nproc=1
%NoSave
%Mem=1900MB
#P OB98/GEN NMR

erre ene a

0 1
  C     -222.712    -142.751      42.744
  O     -221.494    -143.162      43.340
  P     -220.139    -142.597      42.689
  C     -219.190    -142.511      40.257
  O     -220.164    -143.031      41.148
  C     -219.575    -142.854      38.817
  O     -220.732    -142.090      38.413
  C     -218.489    -142.554      37.792
  O     -217.541    -143.604      37.760
  C     -219.309    -142.425      36.513
  O     -219.618    -143.722      35.965
  C     -220.577    -141.722      37.014
  N     -220.218    -137.885      33.745
  C     -220.045    -139.239      33.545
  N     -219.778    -139.632      32.278
  N     -220.126    -140.133      34.497
  C     -220.383    -139.594      35.713
  C     -220.559    -138.271      36.041
  C     -220.518    -137.301      34.968
  O     -220.765    -136.104      35.076
  N     -220.780    -138.109      37.382
  C     -220.766    -139.337      37.860
  N     -220.549    -140.276      36.885
  O     -219.012    -143.527      43.338
  O     -219.883    -141.141      42.916
  H     -218.821    -144.089      35.540
  H     -218.583    -143.075      44.091
  H     -220.161    -137.247      32.971
  H     -220.929    -139.598      38.893
  H     -221.476    -142.070      36.491
  H     -218.771    -141.876      35.732
  H     -219.676    -139.002      31.502
  H     -218.004    -141.598      38.016
  H     -219.643    -140.623      32.117
  H     -219.854    -143.916      38.788
  H     -218.219    -142.961      40.486
  H     -219.121    -141.425      40.392
  P     -216.204    -143.365      36.900
  C     -215.588    -143.421      34.381
  O     -216.555    -143.703      35.377
  O     -215.255    -144.573      37.356
  O     -215.550    -142.044      37.133
  H     -214.330    -144.266      37.381
  H     -215.710    -144.134      33.563
  H     -214.569    -143.498      34.771
  H     -215.751    -142.411      34.000
  H     -223.533    -143.194      43.268
  H     -222.732    -143.063      41.721
  H     -222.791    -141.685      42.793

 3  4  5  6  7  8  9  10  11  12  23  26  30  31 0
 6-311+G(2d,p)
 ****
 33  35  36  37  38 0
 6-311+G(2d,p)
 ****
 1  2  13  14  15  16  17  18  19  20  21  22  24  25 0
 3-21G
 ****
 27  28  29  32  34  39  40  41  42  43  44  45  46  47  48  49 0
 3-21G
 ****


