%nproc=1
%NoSave
%Mem=1900MB
#P OB98/GEN NMR

erre ene a

0 1
  C       18.489     408.640     217.342
  O       19.488     407.865     217.964
  H       17.595     408.624     217.971
  H       18.231     408.228     216.364
  H       18.821     409.677     217.236
  P       20.848     407.561     217.165
  C       20.287     405.090     216.760
  O       20.473     406.364     216.151
  C       19.684     404.083     215.781
  O       19.616     402.773     216.404
  C       18.271     404.444     215.306
  O       18.187     404.290     213.887
  C       17.385     403.417     216.001
  O       16.155     403.211     215.312
  C       18.333     402.214     216.070
  N       17.909     401.213     217.045
  C       17.245     400.092     216.540
  O       17.011     400.004     215.330
  N       16.828     399.119     217.411
  C       17.011     399.276     218.684
  N       16.566     398.283     219.498
  C       17.665     400.464     219.265
  C       18.093     401.379     218.399
  O       22.037     407.300     218.031
  O       21.030     408.813     216.187
  H       15.784     402.346     215.591
  H       21.975     408.871     215.898
  H       17.788     400.553     220.337
  H       18.595     402.282     218.735
  H       18.414     401.726     215.090
  H       17.152     403.762     217.019
  H       17.976     405.458     215.564
  H       20.374     403.976     214.930
  H       16.119     397.481     219.061
  H       19.632     405.210     217.631
  H       16.647     398.299     220.504
  H       21.266     404.721     217.094
  P       18.297     405.640     213.024
  C       15.978     405.436     211.894
  O       16.807     406.185     212.768
  O       18.772     405.118     211.590
  O       19.252     406.642     213.595
  H       19.731     405.255     211.478
  H       15.022     405.910     211.816
  H       15.855     404.446     212.280
  H       16.432     405.387     210.926

 6  7  8  9  10  11  12  13  14  15  16  26  30  31  32  33  35 0
 6-311+G(2d,p)
 ****
 37  38 0
 6-311+G(2d,p)
 ****
 1  2  3  4  5  17  18  19  20  21  22  23  24  25 0
 3-21G
 ****
 27  28  29  34  36  39  40  41  42  43  44  45  46 0
 3-21G
 ****


