%nproc=1
%NoSave
%Mem=1900MB
#P OB98/GEN NMR

erre ene a

0 1
  C     -193.695    -133.227    -179.139
  O     -193.625    -134.124    -180.250
  P     -192.182    -134.742    -180.611
  C     -191.502    -132.591    -181.937
  O     -191.221    -133.482    -180.870
  C     -190.214    -132.192    -182.672
  O     -189.512    -131.168    -181.900
  C     -189.238    -133.345    -182.910
  O     -188.636    -133.120    -184.197
  C     -188.210    -133.163    -181.808
  O     -186.971    -133.791    -182.125
  C     -188.155    -131.632    -181.724
  N     -187.583    -131.154    -180.473
  C     -186.197    -131.160    -180.370
  O     -185.463    -131.618    -181.246
  N     -185.675    -130.667    -179.202
  C     -186.398    -130.253    -178.117
  O     -185.886    -129.814    -177.094
  C     -187.865    -130.379    -178.239
  C     -188.374    -130.816    -179.390
  O     -192.452    -135.340    -182.065
  O     -191.700    -135.723    -179.594
  H     -193.052    -134.802    -182.605
  H     -186.682    -133.492    -183.007
  H     -184.672    -130.633    -179.120
  H     -188.463    -130.114    -177.380
  H     -189.444    -130.944    -179.506
  H     -187.562    -131.228    -182.556
  H     -188.586    -133.590    -180.875
  H     -189.722    -134.326    -182.901
  H     -190.499    -131.734    -183.627
  H     -191.978    -131.688    -181.547
  H     -192.214    -133.063    -182.619
  P     -188.893    -134.211    -185.359
  C     -187.773    -136.096    -183.922
  O     -188.890    -135.650    -184.653
  O     -187.461    -134.170    -186.093
  O     -190.025    -133.902    -186.278
  H     -186.713    -134.214    -185.473
  H     -188.059    -136.976    -183.341
  H     -187.416    -135.320    -183.231
  H     -186.966    -136.372    -184.604
  H     -194.704    -132.894    -179.012
  H     -193.062    -132.384    -179.321
  H     -193.372    -133.731    -178.252

 3  4  5  6  7  8  9  10  11  12  13  24  28  29  30  31  32 0
 6-311+G(2d,p)
 ****
 33  34 0
 6-311+G(2d,p)
 ****
 1  2  14  15  16  17  18  19  20  21  22  23  25  26  27 0
 3-21G
 ****
 35  36  37  38  39  40  41  42  43  44  45 0
 3-21G
 ****


