%nproc=1
%NoSave
%Mem=1900MB
#P OB98/GEN NMR

erre ene a

0 1
  C       12.298    -226.117    -185.386
  O       11.419    -226.104    -186.492
  H       12.377    -225.102    -184.989
  H       13.291    -226.449    -185.696
  H       11.918    -226.772    -184.594
  P       10.966    -227.502    -187.140
  C        8.617    -227.225    -186.108
  O        9.761    -228.059    -186.239
  C        7.379    -227.950    -186.635
  O        7.397    -229.335    -186.224
  C        6.060    -227.382    -186.121
  O        5.734    -226.172    -186.782
  C        5.118    -228.544    -186.412
  O        4.727    -228.553    -187.792
  C        6.020    -229.760    -186.085
  N        5.780    -230.317    -184.754
  C        5.351    -231.641    -184.704
  O        5.140    -232.318    -185.714
  N        5.153    -232.161    -183.449
  C        5.262    -231.474    -182.274
  O        5.020    -231.974    -181.176
  C        5.681    -230.069    -182.387
  C        5.915    -229.562    -183.602
  O       12.061    -228.484    -187.400
  O       10.227    -227.067    -188.494
  H        4.116    -229.307    -187.906
  H       10.831    -227.189    -189.252
  H        4.833    -233.115    -183.394
  H        5.772    -229.491    -181.472
  H        6.226    -228.529    -183.703
  H        5.863    -230.558    -186.823
  H        4.200    -228.502    -185.824
  H        6.108    -227.233    -185.032
  H        7.410    -227.922    -187.735
  H        8.780    -226.308    -186.690
  H        8.491    -226.961    -185.051
  P        4.794    -225.083    -186.080
  C        6.634    -223.733    -184.905
  O        5.529    -224.611    -184.726
  O        3.368    -225.493    -185.907
  O        4.917    -223.797    -187.028
  H        4.098    -223.690    -187.550
  H        7.048    -223.482    -183.951
  H        6.305    -222.842    -185.397
  H        7.380    -224.215    -185.502

 6  7  8  9  10  11  12  13  14  15  16  26  31  32  33  34  35 0
 6-311+G(2d,p)
 ****
 36  37 0
 6-311+G(2d,p)
 ****
 1  2  3  4  5  17  18  19  20  21  22  23  24  25 0
 3-21G
 ****
 27  28  29  30  38  39  40  41  42  43  44  45 0
 3-21G
 ****


