%nproc=1
%NoSave
%Mem=1900MB
#P OB98/GEN NMR

erre ene a

0 1
  C      -41.448     -55.696     193.436
  O      -41.536     -54.698     194.436
  H      -41.670     -56.665     193.890
  H      -40.438     -55.725     193.019
  H      -42.177     -55.499     192.644
  P      -41.265     -53.186     193.963
  C      -42.580     -51.621     192.371
  O      -42.292     -52.963     192.750
  C      -42.904     -51.546     190.879
  O      -41.724     -51.792     190.095
  C      -43.934     -52.563     190.405
  O      -45.252     -52.118     190.696
  C      -43.660     -52.571     188.911
  O      -44.285     -51.428     188.294
  C      -42.129     -52.425     188.849
  N      -40.006     -55.701     185.511
  C      -40.814     -54.629     185.332
  N      -41.374     -53.833     186.266
  C      -41.028     -54.233     187.501
  C      -40.208     -55.302     187.840
  C      -39.678     -56.052     186.777
  N      -38.846     -57.135     186.966
  N      -40.079     -55.405     189.210
  C      -40.762     -54.384     189.687
  N      -41.383     -53.666     188.694
  O      -39.840     -52.836     193.699
  O      -41.958     -52.365     195.152
  H      -44.150     -51.503     187.330
  H      -42.777     -52.804     195.438
  H      -41.040     -54.382     184.298
  H      -40.823     -54.112     190.736
  H      -41.815     -51.769     188.032
  H      -44.064     -53.458     188.419
  H      -43.732     -53.559     190.814
  H      -43.233     -50.521     190.659
  H      -41.735     -50.968     192.602
  H      -38.651     -57.717     186.165
  H      -38.704     -57.470     187.909
  H      -43.444     -51.292     192.961
  P      -46.504     -53.110     190.525
  C      -47.329     -55.248     191.691
  O      -46.233     -54.359     191.495
  O      -46.832     -53.475     189.117
  O      -47.716     -52.352     191.237
  H      -48.545     -52.487     190.740
  H      -47.035     -56.037     192.351
  H      -47.625     -55.662     190.750
  H      -48.150     -54.713     192.119

 6  7  8  9  10  11  12  13  14  15  25  28  32  33  34  35 0
 6-311+G(2d,p)
 ****
 36  39  40 0
 6-311+G(2d,p)
 ****
 1  2  3  4  5  16  17  18  19  20  21  22  23  24 0
 3-21G
 ****
 26  27  29  30  31  37  38  41  42  43  44  45  46  47 0
 3-21G
 ****
 48 0
 3-21G
 ****


