%nproc=1
%NoSave
%Mem=1900MB
#P OB98/GEN NMR

erre ene a

0 1
  C     -134.300     331.915    -326.123
  O     -135.658     331.860    -325.741
  H     -133.795     332.680    -325.528
  H     -134.227     332.187    -327.180
  H     -133.806     330.953    -325.951
  P     -136.515     330.606    -326.255
  C     -137.937     330.467    -324.089
  O     -137.932     330.660    -325.495
  C     -139.182     331.098    -323.473
  O     -139.027     332.544    -323.461
  C     -140.481     330.777    -324.230
  O     -141.540     330.583    -323.280
  C     -140.746     332.041    -325.032
  O     -142.128     332.211    -325.354
  C     -140.189     333.111    -324.098
  N     -142.049     336.870    -326.890
  C     -142.701     335.851    -326.216
  N     -144.052     335.828    -326.308
  N     -142.078     334.940    -325.516
  C     -140.734     335.110    -325.487
  C     -139.977     336.075    -326.115
  C     -140.674     337.058    -326.913
  O     -140.157     337.971    -327.551
  N     -138.635     335.890    -325.870
  C     -138.586     334.824    -325.096
  N     -139.835     334.318    -324.831
  O     -135.775     329.357    -325.580
  O     -136.600     330.453    -327.738
  H     -142.190     332.962    -325.985
  H     -135.390     328.789    -326.271
  H     -142.583     337.541    -327.429
  H     -137.684     334.368    -324.709
  H     -140.902     333.401    -323.318
  H     -140.180     332.003    -325.972
  H     -144.595     336.520    -326.785
  H     -140.399     329.895    -324.865
  H     -144.544     335.110    -325.787
  H     -139.256     330.778    -322.424
  H     -137.042     330.940    -323.667
  H     -137.916     329.396    -323.870
  P     -142.204     329.117    -323.227
  C     -141.771     328.868    -320.685
  O     -142.736     328.865    -321.729
  O     -140.947     328.142    -323.360
  O     -143.205     328.875    -324.308
  H     -140.940     327.719    -324.236
  H     -142.258     328.690    -319.749
  H     -141.279     329.818    -320.656
  H     -141.050     328.098    -320.864

 6  7  8  9  10  11  12  13  14  15  26  29  33  34 0
 6-311+G(2d,p)
 ****
 36  38  39  40  41 0
 6-311+G(2d,p)
 ****
 1  2  3  4  5  16  17  18  19  20  21  22  23  24  25 0
 3-21G
 ****
 27  28  30  31  32  35  37  42  43  44  45  46  47 0
 3-21G
 ****
 48  49 0
 3-21G
 ****


