%nproc=1
%NoSave
%Mem=1900MB
#P OB98/GEN NMR

erre ene a

0 1
  C      345.154      94.287    -139.652
  O      345.921      93.541    -140.582
  P      345.149      92.927    -141.849
  C      344.670      90.751    -140.497
  O      344.136      91.831    -141.258
  C      343.544      89.896    -139.925
  O      342.674      90.702    -139.113
  C      342.648      89.265    -140.981
  O      343.285      88.140    -141.563
  C      341.411      88.920    -140.159
  O      341.552      87.635    -139.525
  C      341.382      90.053    -139.104
  N      340.305      91.008    -139.336
  C      339.031      90.601    -138.916
  O      338.874      89.489    -138.407
  N      337.970      91.446    -139.126
  C      338.164      92.589    -139.704
  N      337.077      93.393    -139.881
  C      339.487      93.049    -140.178
  C      340.500      92.210    -139.974
  O      346.272      92.041    -142.566
  O      344.547      93.941    -142.769
  H      342.330      87.719    -138.934
  H      346.093      91.953    -143.519
  H      339.589      94.008    -140.657
  H      341.508      92.463    -140.290
  H      341.254      89.634    -138.097
  H      340.511      88.875    -140.776
  H      342.389      89.997    -141.751
  H      343.993      89.121    -139.281
  H      336.181      93.048    -139.551
  H      345.267      91.153    -139.673
  H      337.127      94.310    -140.301
  H      345.320      90.154    -141.143
  P      343.146      87.950    -143.147
  C      341.160      86.329    -143.040
  O      341.598      87.629    -143.388
  O      343.828      86.510    -143.374
  O      343.756      89.000    -144.013
  H      343.894      86.324    -144.326
  H      340.070      86.296    -143.107
  H      341.459      86.090    -142.014
  H      341.577      85.597    -143.735
  H      345.789      94.635    -138.864
  H      344.386      93.665    -139.243
  H      344.709      95.125    -140.147

 3  4  5  6  7  8  9  10  11  12  13  21  23  27  28  29  30  32 0
 6-311+G(2d,p)
 ****
 34  35 0
 6-311+G(2d,p)
 ****
 1  2  14  15  16  17  18  19  20  22  24  25  26 0
 3-21G
 ****
 31  33  36  37  38  39  40  41  42  43  44  45  46 0
 3-21G
 ****


