%nproc=1
%NoSave
%Mem=1900MB
#P OB98/GEN NMR

erre ene a

0 1
  C     -184.126     235.266     660.510
  O     -184.786     234.363     661.385
  P     -184.690     232.794     661.048
  C     -183.098     232.213     663.017
  O     -184.395     232.070     662.448
  C     -182.991     231.427     664.321
  O     -183.878     231.992     665.313
  C     -183.383     229.958     664.208
  O     -182.327     229.165     663.702
  C     -183.651     229.624     665.665
  O     -182.411     229.404     666.357
  C     -184.320     230.908     666.177
  N     -188.464     229.465     668.804
  C     -187.142     229.326     669.053
  N     -186.097     229.727     668.299
  C     -186.528     230.294     667.158
  C     -187.840     230.472     666.748
  C     -188.839     230.038     667.635
  N     -190.186     230.208     667.390
  N     -187.886     231.089     665.519
  C     -186.626     231.295     665.197
  N     -185.769     230.839     666.157
  O     -183.295     232.680     660.272
  O     -185.826     232.249     660.250
  H     -182.625     229.351     667.309
  H     -183.291     231.879     659.709
  H     -186.893     228.836     669.991
  H     -186.293     231.773     664.286
  H     -184.013     231.162     667.191
  H     -184.251     228.716     665.787
  H     -184.303     229.838     663.628
  H     -181.961     231.527     664.692
  H     -182.913     233.274     663.223
  H     -190.825     230.038     668.147
  H     -190.453     230.809     666.621
  H     -182.353     231.862     662.300
  P     -182.741     227.841     662.891
  C     -182.038     228.707     660.548
  O     -181.782     227.810     661.610
  O     -184.181     228.218     662.294
  O     -182.781     226.602     663.724
  H     -184.703     227.415     662.135
  H     -181.142     228.779     659.925
  H     -182.281     229.705     660.917
  H     -182.865     228.332     659.941
  H     -184.274     236.268     660.854
  H     -184.528     235.165     659.524
  H     -183.079     235.045     660.493

 3  4  5  6  7  8  9  10  11  12  22  25  29  30  31  32 0
 6-311+G(2d,p)
 ****
 33  36  37 0
 6-311+G(2d,p)
 ****
 1  2  13  14  15  16  17  18  19  20  21  23  24  26 0
 3-21G
 ****
 27  28  34  35  38  39  40  41  42  43  44  45  46  47  48 0
 3-21G
 ****


