%nproc=1
%NoSave
%Mem=1900MB
#P OB98/GEN NMR

erre ene a

0 1
  C       10.075     340.131    -323.182
  O        8.782     339.559    -323.115
  P        8.651     338.083    -322.505
  C        9.487     335.708    -323.183
  O        9.536     337.110    -323.418
  C        9.348     334.968    -324.516
  O       10.408     335.354    -325.419
  C        9.454     333.454    -324.385
  O        8.241     332.891    -323.917
  C        9.803     333.046    -325.810
  O        8.622     332.951    -326.623
  C       10.687     334.222    -326.270
  N       12.108     333.887    -326.278
  C       12.653     333.574    -327.521
  O       11.988     333.556    -328.556
  N       13.981     333.247    -327.525
  C       14.786     333.145    -326.428
  O       15.957     332.788    -326.490
  C       14.148     333.457    -325.139
  C       12.859     333.801    -325.122
  O        7.145     337.660    -322.843
  O        8.938     337.988    -321.044
  H        8.130     332.168    -326.307
  H        6.782     337.116    -322.120
  H       14.400     333.042    -328.417
  H       14.758     333.386    -324.248
  H       12.368     334.020    -324.181
  H       10.405     334.532    -327.283
  H       10.298     332.072    -325.850
  H       10.289     333.193    -323.723
  H        8.393     335.250    -324.971
  H        8.631     335.479    -322.544
  H       10.400     335.401    -322.664
  P        8.354     331.545    -323.045
  C        9.793     329.392    -323.376
  O        9.194     330.528    -323.956
  O        6.844     331.019    -323.112
  O        8.871     331.786    -321.666
  H        6.412     331.249    -323.952
  H        9.177     328.976    -322.575
  H       10.773     329.660    -322.978
  H        9.922     328.632    -324.151
  H       10.010     341.111    -323.608
  H       10.705     339.518    -323.792
  H       10.487     340.197    -322.197

 3  4  5  6  7  8  9  10  11  12  13  23  28  29  30  31  32 0
 6-311+G(2d,p)
 ****
 33  34 0
 6-311+G(2d,p)
 ****
 1  2  14  15  16  17  18  19  20  21  22  24  25  26 0
 3-21G
 ****
 27  35  36  37  38  39  40  41  42  43  44  45 0
 3-21G
 ****


