%nproc=1
%NoSave
%Mem=1900MB
#P OB98/GEN NMR

erre ene a

0 1
  C     -373.234    -741.219    -121.811
  O     -374.501    -740.956    -122.391
  P     -374.700    -739.721    -123.400
  C     -377.072    -740.545    -123.981
  O     -376.285    -739.476    -123.480
  C     -378.521    -740.103    -124.151
  O     -379.211    -740.032    -122.873
  C     -378.688    -738.704    -124.732
  O     -378.265    -738.507    -126.071
  C     -380.141    -738.418    -124.418
  O     -381.018    -739.026    -125.372
  C     -380.306    -739.096    -123.025
  N     -380.326    -738.114    -121.935
  C     -381.599    -737.671    -121.567
  O     -382.649    -738.057    -122.102
  N     -381.642    -736.723    -120.567
  C     -380.553    -736.188    -119.947
  O     -380.652    -735.312    -119.090
  C     -379.235    -736.684    -120.393
  C     -379.189    -737.623    -121.355
  O     -374.036    -739.871    -124.719
  O     -374.199    -738.465    -122.543
  H     -380.623    -739.881    -125.627
  H     -374.690    -738.313    -121.715
  H     -382.549    -736.389    -120.297
  H     -378.367    -736.268    -119.914
  H     -378.242    -738.001    -121.700
  H     -381.227    -739.691    -122.992
  H     -380.359    -737.340    -124.416
  H     -378.083    -738.017    -124.119
  H     -379.048    -740.858    -124.748
  H     -377.032    -741.381    -123.257
  H     -376.655    -740.899    -124.929
  P     -377.637    -737.130    -126.586
  C     -376.574    -738.014    -128.775
  O     -377.553    -737.179    -128.191
  O     -376.435    -736.598    -125.855
  O     -378.867    -736.106    -126.364
  H     -378.528    -735.216    -126.172
  H     -376.620    -737.906    -129.875
  H     -376.768    -739.062    -128.535
  H     -375.578    -737.727    -128.449
  H     -373.304    -742.075    -121.173
  H     -372.922    -740.372    -121.237
  H     -372.520    -741.408    -122.585

 3  4  5  6  7  8  9  10  11  12  13  23  28  29  30  31  32 0
 6-311+G(2d,p)
 ****
 33  34 0
 6-311+G(2d,p)
 ****
 1  2  14  15  16  17  18  19  20  21  22  24  25  26  27 0
 3-21G
 ****
 35  36  37  38  39  40  41  42  43  44  45 0
 3-21G
 ****


