%nproc=1
%NoSave
%Mem=1900MB
#P OB98/GEN NMR

erre ene a

0 1
  C     -378.105    1175.860     608.206
  O     -377.292    1174.735     607.925
  H     -377.494    1176.627     608.681
  H     -378.911    1175.577     608.894
  H     -378.533    1176.272     607.286
  P     -377.903    1173.539     607.063
  C     -376.801    1171.486     608.187
  O     -376.809    1172.366     607.061
  C     -375.366    1171.281     608.695
  O     -374.578    1170.666     607.629
  C     -374.648    1172.576     609.101
  O     -373.712    1172.237     610.145
  C     -373.925    1172.925     607.805
  O     -372.959    1173.929     607.981
  C     -373.430    1171.522     607.417
  N     -372.940    1171.388     606.062
  C     -371.710    1171.966     605.747
  O     -371.010    1172.577     606.556
  N     -371.288    1171.828     604.454
  C     -371.952    1171.170     603.461
  O     -371.514    1171.049     602.327
  C     -373.242    1170.586     603.837
  C     -373.674    1170.715     605.097
  O     -378.432    1173.904     605.714
  O     -379.062    1172.947     608.003
  H     -379.935    1173.259     607.696
  H     -373.396    1174.735     608.343
  H     -370.401    1172.239     604.215
  H     -373.808    1170.065     603.075
  H     -374.616    1170.289     605.404
  H     -372.654    1171.189     608.119
  H     -374.637    1173.303     607.074
  H     -375.325    1173.355     609.458
  H     -375.391    1170.566     609.525
  H     -377.228    1170.528     607.875
  H     -377.423    1171.917     608.977
  P     -373.977    1172.549     611.700
  C     -371.467    1173.146     611.885
  O     -372.569    1172.466     612.464
  O     -375.052    1171.709     612.310
  O     -374.364    1174.099     611.753
  H     -374.921    1174.270     612.549
  H     -370.600    1173.006     612.496
  H     -371.689    1174.190     611.815
  H     -371.281    1172.755     610.907

 6  7  8  9  10  11  12  13  14  15  16  27  31  32  33  34  35 0
 6-311+G(2d,p)
 ****
 36  37 0
 6-311+G(2d,p)
 ****
 1  2  3  4  5  17  18  19  20  21  22  23  24  25 0
 3-21G
 ****
 26  28  29  30  38  39  40  41  42  43  44  45 0
 3-21G
 ****


