%nproc=1
%NoSave
%Mem=1900MB
#P OB98/GEN NMR

erre ene a

0 1
  C      134.091     454.363     303.723
  O      133.029     453.405     303.774
  P      131.568     453.942     303.379
  C      129.818     453.864     305.297
  O      130.490     453.148     304.267
  C      129.422     452.922     306.440
  O      130.548     452.557     307.258
  C      128.394     453.521     307.385
  O      127.099     453.425     306.817
  C      128.568     452.655     308.626
  O      127.820     451.429     308.524
  C      130.077     452.363     308.621
  N      132.772     452.377     312.917
  C      131.981     451.382     312.370
  N      131.922     450.214     313.054
  N      131.317     451.516     311.254
  C      131.471     452.735     310.678
  C      132.251     453.786     311.106
  C      132.981     453.626     312.351
  O      133.712     454.464     312.858
  N      132.207     454.838     310.226
  C      131.305     454.465     309.335
  N      130.876     453.171     309.528
  O      131.346     453.370     301.902
  O      131.454     455.431     303.417
  H      128.027     450.861     309.289
  H      131.373     454.103     301.255
  H      133.261     452.219     313.783
  H      130.950     455.079     308.522
  H      130.284     451.319     308.883
  H      128.214     453.160     309.528
  H      132.414     450.042     313.917
  H      128.648     454.570     307.612
  H      131.352     449.472     312.663
  H      129.026     452.002     305.981
  H      128.925     454.346     304.895
  H      130.473     454.662     305.656
  P      126.265     454.780     306.604
  C      124.093     454.076     307.835
  O      124.716     454.395     306.604
  O      126.571     455.154     305.076
  O      126.657     455.894     307.516
  H      126.760     456.105     304.999
  H      123.036     454.356     307.781
  H      124.557     454.605     308.673
  H      124.167     452.996     308.004
  H      135.010     453.892     304.005
  H      133.880     455.166     304.398
  H      134.177     454.747     302.728

 3  4  5  6  7  8  9  10  11  12  23  26  30  31 0
 6-311+G(2d,p)
 ****
 33  35  36  37  38 0
 6-311+G(2d,p)
 ****
 1  2  13  14  15  16  17  18  19  20  21  22  24  25 0
 3-21G
 ****
 27  28  29  32  34  39  40  41  42  43  44  45  46  47  48  49 0
 3-21G
 ****


