%nproc=1
%NoSave
%Mem=1900MB
#P OB98/GEN NMR

erre ene a

0 1
  C      -83.418     188.977     340.285
  O      -82.432     188.752     341.277
  H      -82.975     188.791     339.303
  H      -83.760     190.015     340.328
  H      -84.263     188.299     340.429
  P      -82.935     188.747     342.798
  C      -80.970     187.416     343.924
  O      -81.631     188.663     343.735
  C      -79.547     187.644     344.436
  O      -78.690     188.087     343.368
  C      -79.429     188.743     345.483
  O      -79.961     188.364     346.736
  C      -77.922     188.957     345.493
  O      -77.261     188.022     346.347
  C      -77.543     188.713     344.005
  N      -77.135     189.937     343.341
  C      -75.749     190.096     343.167
  O      -74.986     189.213     343.546
  N      -75.291     191.252     342.604
  C      -76.130     192.183     342.268
  N      -75.597     193.329     341.745
  C      -77.589     192.063     342.436
  C      -78.022     190.919     342.979
  O      -83.582     187.287     342.941
  O      -83.859     189.864     343.155
  H      -76.299     188.189     346.245
  H      -83.009     186.571     342.617
  H      -78.251     192.872     342.125
  H      -79.083     190.752     343.130
  H      -76.720     187.995     343.939
  H      -77.663     189.958     345.852
  H      -79.913     189.659     345.110
  H      -79.164     186.682     344.819
  H      -74.586     193.385     341.694
  H      -80.953     186.840     342.985
  H      -76.138     194.146     341.519
  H      -81.553     186.835     344.646
  P      -81.505     188.542     347.079
  C      -81.559     186.617     348.807
  O      -81.717     188.020     348.590
  O      -82.453     187.932     346.092
  O      -81.674     190.121     347.245
  H      -81.123     190.516     347.940
  H      -81.723     186.395     349.841
  H      -80.568     186.323     348.532
  H      -82.268     186.082     348.210

 6  7  8  9  10  11  12  13  14  15  16  26  30  31  32  33  35 0
 6-311+G(2d,p)
 ****
 37  38 0
 6-311+G(2d,p)
 ****
 1  2  3  4  5  17  18  19  20  21  22  23  24  25 0
 3-21G
 ****
 27  28  29  34  36  39  40  41  42  43  44  45  46 0
 3-21G
 ****


