%nproc=1
%NoSave
%Mem=1900MB
#P OB98/GEN NMR

erre ene a

0 1
  C     -531.974     352.928     397.108
  O     -531.310     353.693     398.092
  H     -533.012     353.261     397.052
  H     -531.952     351.870     397.356
  H     -531.513     353.086     396.123
  P     -529.783     353.328     398.440
  C     -529.008     355.688     397.719
  O     -529.039     354.718     398.753
  C     -529.027     357.105     398.297
  O     -530.335     357.347     398.912
  C     -527.953     357.346     399.390
  O     -527.602     358.737     399.347
  C     -528.746     357.041     400.658
  O     -528.070     357.496     401.804
  C     -530.086     357.684     400.305
  N     -531.180     357.231     401.167
  C     -531.984     358.232     401.735
  O     -531.752     359.416     401.476
  N     -533.014     357.861     402.556
  C     -533.164     356.608     402.867
  N     -534.202     356.310     403.713
  C     -532.306     355.529     402.352
  C     -531.336     355.905     401.509
  O     -529.082     352.442     397.452
  O     -529.877     352.635     399.882
  H     -528.568     357.258     402.626
  H     -529.763     351.672     399.792
  H     -532.470     354.506     402.652
  H     -530.643     355.184     401.074
  H     -530.026     358.776     400.374
  H     -528.870     355.958     400.779
  H     -527.068     356.722     399.267
  H     -528.918     357.829     397.481
  H     -534.757     357.083     404.052
  H     -529.890     355.528     397.082
  H     -534.411     355.375     404.034
  H     -528.105     355.565     397.107
  P     -526.222     359.293     399.950
  C     -525.295     360.299     397.748
  O     -525.747     360.556     399.083
  O     -525.168     358.260     400.139
  O     -526.629     359.956     401.359
  H     -525.882     359.874     401.981
  H     -525.010     361.220     397.284
  H     -526.084     359.846     397.185
  H     -524.453     359.639     397.777

 6  7  8  9  10  11  12  13  14  15  16  26  30  31  32  33  35 0
 6-311+G(2d,p)
 ****
 37  38 0
 6-311+G(2d,p)
 ****
 1  2  3  4  5  17  18  19  20  21  22  23  24  25 0
 3-21G
 ****
 27  28  29  34  36  39  40  41  42  43  44  45  46 0
 3-21G
 ****


