%nproc=1
%NoSave
%Mem=1900MB
#P OB98/GEN NMR

erre ene a

0 1
  C     -145.384     312.431    -121.348
  O     -146.211     312.049    -120.265
  H     -145.385     313.520    -121.423
  H     -145.770     312.009    -122.280
  H     -144.359     312.088    -121.180
  P     -146.329     310.476    -119.978
  C     -148.588     310.311    -121.269
  O     -147.241     309.878    -121.154
  C     -149.297     309.556    -122.399
  O     -148.570     309.786    -123.642
  C     -149.352     308.033    -122.192
  O     -150.527     307.539    -122.856
  C     -148.112     307.576    -122.943
  O     -148.136     306.184    -123.160
  C     -148.205     308.487    -124.163
  N     -145.519     306.522    -128.043
  C     -146.759     306.253    -127.581
  N     -147.413     306.826    -126.551
  C     -146.661     307.788    -125.988
  C     -145.383     308.182    -126.356
  C     -144.803     307.498    -127.436
  N     -143.538     307.766    -127.906
  N     -144.936     309.203    -125.538
  C     -145.924     309.422    -124.695
  N     -146.983     308.586    -124.922
  O     -147.275     310.407    -118.690
  O     -145.036     309.764    -119.762
  H     -148.887     305.935    -123.738
  H     -146.731     310.347    -117.882
  H     -147.297     305.468    -128.107
  H     -145.924     310.159    -123.901
  H     -148.999     308.170    -124.849
  H     -147.207     307.788    -122.365
  H     -149.377     307.738    -121.140
  H     -150.301     309.977    -122.536
  H     -148.591     311.385    -121.481
  H     -149.112     310.130    -120.326
  H     -143.189     307.219    -128.675
  H     -142.987     308.479    -127.452
  P     -151.910     307.459    -122.042
  C     -151.640     305.012    -121.154
  O     -151.744     306.395    -120.851
  O     -152.853     306.662    -123.066
  O     -152.523     308.769    -121.669
  H     -153.783     306.916    -122.916
  H     -151.536     304.455    -120.246
  H     -150.784     304.846    -121.774
  H     -152.522     304.693    -121.670

 6  7  8  9  10  11  12  13  14  15  25  28  32  33  34  35 0
 6-311+G(2d,p)
 ****
 36  37  40 0
 6-311+G(2d,p)
 ****
 1  2  3  4  5  16  17  18  19  20  21  22  23  24 0
 3-21G
 ****
 26  27  29  30  31  38  39 41  42  43  44  45  46  47  48 0
 3-21G
 ****


