%nproc=1
%NoSave
%Mem=1900MB
#P OB98/GEN NMR

erre ene a

0 1
  C      -87.608      51.511     368.640
  O      -86.517      50.650     368.384
  H      -87.898      51.403     369.689
  H      -88.461      51.241     368.011
  H      -87.324      52.553     368.459
  P      -85.935      50.563     366.891
  C      -85.287      48.078     366.619
  O      -84.829      49.397     366.892
  C      -84.405      47.051     367.348
  O      -84.685      47.164     368.770
  C      -84.699      45.606     366.909
  O      -83.527      44.897     366.502
  C      -85.494      45.040     368.079
  O      -85.409      43.635     368.225
  C      -84.975      45.844     369.276
  N      -85.916      45.915     370.396
  C      -85.901      44.871     371.317
  O      -85.142      43.902     371.266
  N      -86.812      44.973     372.334
  C      -87.706      45.981     372.522
  O      -88.496      46.023     373.458
  C      -87.688      47.046     371.502
  C      -86.808      46.971     370.502
  O      -85.482      51.855     366.297
  O      -87.131      49.916     366.052
  H      -86.083      43.367     368.882
  H      -87.587      50.613     365.537
  H      -86.800      44.228     373.012
  H      -88.395      47.862     371.615
  H      -86.771      47.737     369.735
  H      -84.044      45.412     369.653
  H      -86.555      45.281     367.926
  H      -85.328      45.590     366.014
  H      -83.352      47.314     367.196
  H      -85.233      47.917     365.538
  H      -86.327      47.972     366.948
  P      -83.416      44.013     365.179
  C      -82.670      41.685     366.134
  O      -82.325      42.867     365.431
  O      -83.321      44.772     363.897
  O      -84.810      43.199     365.157
  H      -85.055      43.078     364.214
  H      -81.814      41.046     366.200
  H      -83.455      41.177     365.614
  H      -83.001      41.940     367.119

 6  7  8  9  10  11  12  13  14  15  16  26  31  32  33  34  35 0
 6-311+G(2d,p)
 ****
 36  37 0
 6-311+G(2d,p)
 ****
 1  2  3  4  5  17  18  19  20  21  22  23  24  25 0
 3-21G
 ****
 27  28  29  30  38  39  40  41  42  43  44  45 0
 3-21G
 ****


