%nproc=1
%NoSave
%Mem=1900MB
#P OB98/GEN NMR

erre ene a

0 1
  C     -387.333      80.656    -129.326
  O     -386.080      81.261    -129.579
  P     -384.739      80.389    -129.654
  C     -384.823      80.137    -132.205
  O     -384.829      79.459    -130.956
  C     -383.399      80.392    -132.701
  O     -382.702      79.118    -132.829
  C     -383.323      81.104    -134.060
  O     -382.212      82.008    -133.999
  C     -383.039      79.974    -135.028
  O     -382.446      80.429    -136.235
  C     -382.151      79.071    -134.162
  N     -382.094      77.705    -134.660
  C     -381.243      77.461    -135.744
  O     -380.686      78.400    -136.314
  N     -381.058      76.164    -136.157
  C     -381.802      75.226    -135.659
  N     -381.542      73.947    -136.042
  C     -382.888      75.485    -134.690
  C     -382.945      76.728    -134.207
  O     -384.383      79.668    -128.398
  O     -383.604      81.452    -130.048
  H     -382.869      81.387    -129.404
  H     -383.135      80.864    -136.783
  H     -383.559      74.695    -134.398
  H     -383.691      77.013    -133.472
  H     -381.132      79.472    -134.104
  H     -383.978      79.460    -135.282
  H     -384.236      81.665    -134.292
  H     -382.871      80.971    -131.937
  H     -380.763      73.797    -136.677
  H     -385.328      81.099    -132.073
  H     -381.836      73.141    -135.487
  H     -385.391      79.561    -132.943
  P     -382.218      83.289    -134.972
  C     -382.205      85.140    -133.152
  O     -382.921      84.499    -134.189
  O     -383.352      82.877    -136.036
  O     -380.942      83.592    -135.684
  H     -383.186      83.348    -136.875
  H     -382.857      85.887    -132.686
  H     -381.324      85.648    -133.555
  H     -381.900      84.417    -132.387
  H     -388.096      81.406    -129.316
  H     -387.306      80.163    -128.377
  H     -387.546      79.941    -130.094

 3  4  5  6  7  8  9  10  11  12  13  24  27  28  29  30  32 0
 6-311+G(2d,p)
 ****
 34  35 0
 6-311+G(2d,p)
 ****
 1  2  14  15  16  17  18  19  20  21  22  23  25  26 0
 3-21G
 ****
 31  33  36  37  38  39  40  41  42  43  44  45  46 0
 3-21G
 ****


