%nproc=1
%NoSave
%Mem=1900MB
#P OB98/GEN NMR

erre ene a

0 1
  C       21.954     -82.220     172.101
  O       21.152     -81.338     171.341
  H       22.045     -81.827     173.117
  H       22.954     -82.287     171.661
  H       21.499     -83.214     172.146
  P       20.690     -81.830     169.887
  C       21.521     -81.378     167.465
  O       21.535     -80.969     168.826
  C       22.383     -80.430     166.627
  O       21.720     -79.135     166.569
  C       23.792     -80.201     167.194
  O       24.705     -80.073     166.099
  C       23.666     -78.861     167.897
  O       24.901     -78.173     168.059
  C       22.688     -78.138     166.965
  N       22.032     -77.001     167.612
  C       22.461     -75.725     167.247
  O       23.280     -75.484     166.363
  N       21.895     -74.693     167.949
  C       20.990     -74.805     168.967
  O       20.539     -73.840     169.572
  C       20.589     -76.175     169.311
  C       21.121     -77.193     168.634
  O       19.211     -81.231     169.757
  O       20.732     -83.307     169.664
  H       18.553     -81.865     170.102
  H       25.474     -78.735     168.616
  H       22.192     -73.763     167.696
  H       19.883     -76.304     170.120
  H       20.860     -78.219     168.878
  H       23.204     -77.799     166.061
  H       23.226     -79.004     168.890
  H       24.138     -80.993     167.871
  H       22.431     -80.813     165.601
  H       20.492     -81.352     167.087
  H       21.900     -82.404     167.389
  P       25.471     -81.399     165.613
  C       27.634     -82.630     166.449
  O       26.801     -81.477     166.507
  O       25.984     -80.951     164.171
  O       24.604     -82.612     165.631
  H       26.232     -80.009     164.125
  H       28.467     -82.502     167.108
  H       27.988     -82.764     165.448
  H       27.073     -83.491     166.747

 6  7  8  9  10  11  12  13  14  15  16  27  31  32  33  34  35 0
 6-311+G(2d,p)
 ****
 36  37 0
 6-311+G(2d,p)
 ****
 1  2  3  4  5  17  18  19  20  21  22  23  24  25 0
 3-21G
 ****
 26  28  29  30  38  39  40  41  42  43  44  45 0
 3-21G
 ****


