%nproc=1
%NoSave
%Mem=1900MB
#P OB98/GEN NMR

erre ene a

0 1
  C       38.472     -71.428     -30.375
  O       38.144     -71.395     -29.002
  H       39.559     -71.402     -30.477
  H       38.054     -70.554     -30.882
  H       38.099     -72.343     -30.844
  P       36.618     -71.606     -28.567
  C       36.570     -69.387     -27.250
  O       36.410     -70.796     -27.200
  C       37.315     -68.880     -26.009
  O       38.664     -69.440     -26.017
  C       37.464     -67.347     -25.943
  O       37.495     -66.988     -24.554
  C       38.823     -67.163     -26.593
  O       39.333     -65.865     -26.423
  C       39.576     -68.324     -25.930
  N       40.861     -68.660     -26.531
  C       41.932     -67.806     -26.290
  O       41.873     -66.788     -25.602
  N       43.117     -68.157     -26.882
  C       43.333     -69.257     -27.658
  O       44.425     -69.537     -28.137
  C       42.162     -70.118     -27.883
  C       41.000     -69.790     -27.314
  O       36.139     -73.019     -28.543
  O       35.799     -70.727     -29.627
  H       35.412     -71.310     -30.307
  H       39.516     -65.716     -25.470
  H       43.905     -67.552     -26.715
  H       42.295     -70.993     -28.504
  H       40.121     -70.410     -27.454
  H       39.724     -68.113     -24.866
  H       38.744     -67.314     -27.672
  H       36.647     -66.815     -26.439
  H       36.816     -69.268     -25.113
  H       35.575     -68.930     -27.294
  H       37.124     -69.119     -28.155
  P       36.372     -66.084     -23.849
  C       38.139     -64.743     -22.514
  O       36.966     -65.546     -22.457
  O       35.047     -66.759     -23.715
  O       36.260     -64.768     -24.753
  H       35.369     -64.383     -24.660
  H       38.423     -64.456     -21.523
  H       37.944     -63.867     -23.097
  H       38.932     -65.302     -22.965

 6  7  8  9  10  11  12  13  14  15  16  27  31  32  33  34  35 0
 6-311+G(2d,p)
 ****
 36  37 0
 6-311+G(2d,p)
 ****
 1  2  3  4  5  17  18  19  20  21  22  23  24  25 0
 3-21G
 ****
 26  28  29  30  38  39  40  41  42  43  44  45 0
 3-21G
 ****


