%nproc=1
%NoSave
%Mem=1900MB
#P OB98/GEN NMR

erre ene a

0 1
  C       44.327      77.382     -25.301
  O       43.239      77.936     -24.596
  H       44.914      78.196     -25.733
  H       43.955      76.749     -26.111
  H       44.973      76.795     -24.644
  P       42.492      77.037     -23.505
  C       40.272      76.485     -24.699
  O       41.540      76.000     -24.278
  C       39.321      75.343     -25.057
  O       39.777      74.689     -26.261
  C       39.257      74.268     -23.968
  O       38.309      74.523     -22.946
  C       38.877      73.028     -24.772
  O       37.450      72.901     -24.892
  C       39.510      73.285     -26.143
  N       41.806      69.397     -28.542
  C       40.461      69.714     -28.495
  N       39.631      68.865     -29.138
  N       39.989      70.755     -27.861
  C       40.929      71.452     -27.184
  C       42.285      71.223     -27.139
  C       42.809      70.112     -27.904
  O       43.991      69.799     -27.991
  N       42.921      72.117     -26.312
  C       41.939      72.826     -25.794
  N       40.722      72.514     -26.352
  O       41.434      78.050     -22.849
  O       43.371      76.438     -22.450
  H       37.090      73.773     -25.145
  H       41.289      77.811     -21.916
  H       42.112      68.600     -29.069
  H       42.056      73.606     -25.049
  H       38.822      73.022     -26.956
  H       39.232      72.120     -24.278
  H       39.930      68.006     -29.567
  H       40.246      74.101     -23.532
  H       38.627      68.954     -28.970
  H       38.327      75.754     -25.273
  H       40.453      77.108     -25.575
  H       39.832      77.121     -23.927
  P       38.607      74.114     -21.430
  C       37.295      71.848     -21.253
  O       38.530      72.526     -21.312
  O       37.296      74.607     -20.659
  O       39.853      74.692     -20.842
  H       37.452      75.469     -20.230
  H       37.469      70.795     -21.176
  H       36.733      72.053     -22.140
  H       36.745      72.182     -20.398

 6  7  8  9  10  11  12  13  14  15  26  29  33  34 0
 6-311+G(2d,p)
 ****
 36  38  39  40  41 0
 6-311+G(2d,p)
 ****
 1  2  3  4  5  16  17  18  19  20  21  22  23  24  25 0
 3-21G
 ****
 27  28  30  31  32  35  37  42  43  44  45  46  47 0
 3-21G
 ****
 48  49 0
 3-21G
 ****


