%nproc=1
%NoSave
%Mem=1900MB
#P OB98/GEN NMR

erre ene a

0 1
  C      -39.178     -26.478     112.465
  O      -40.066     -25.377     112.362
  P      -39.534     -24.075     111.584
  C      -37.846     -22.170     112.142
  O      -38.659     -23.233     112.630
  C      -37.466     -21.234     113.286
  O      -38.652     -20.688     113.897
  C      -36.695     -21.897     114.421
  O      -35.343     -22.124     114.057
  C      -36.893     -20.868     115.531
  O      -35.992     -19.764     115.345
  C      -38.344     -20.414     115.290
  N      -40.039     -21.020     120.086
  C      -39.037     -20.272     119.571
  N      -38.633     -20.181     118.286
  C      -39.385     -20.963     117.495
  C      -40.424     -21.794     117.879
  C      -40.752     -21.806     119.244
  N      -41.772     -22.573     119.767
  N      -40.946     -22.461     116.790
  C      -40.242     -22.031     115.765
  N      -39.298     -21.112     116.136
  O      -40.854     -23.192     111.410
  O      -38.867     -24.355     110.272
  H      -36.195     -19.104     116.039
  H      -40.834     -22.694     110.571
  H      -38.488     -19.665     120.286
  H      -40.381     -22.348     114.737
  H      -38.481     -19.339     115.455
  H      -36.714     -21.277     116.530
  H      -37.169     -22.846     114.701
  H      -36.882     -20.404     112.863
  H      -38.401     -21.602     111.389
  H      -41.843     -22.636     120.770
  H      -42.207     -23.260     119.163
  H      -36.954     -22.595     111.669
  P      -34.673     -23.500     114.544
  C      -34.125     -24.434     116.875
  O      -34.446     -23.278     116.120
  O      -33.192     -23.363     113.955
  O      -35.417     -24.732     114.161
  H      -32.796     -22.499     114.159
  H      -33.946     -24.135     117.910
  H      -33.221     -24.905     116.480
  H      -34.958     -25.141     116.848
  H      -39.654     -27.271     113.002
  H      -38.294     -26.175     112.986
  H      -38.916     -26.818     111.485

 3  4  5  6  7  8  9  10  11  12  22  25  29  30  31  32 0
 6-311+G(2d,p)
 ****
 33  36  37 0
 6-311+G(2d,p)
 ****
 1  2  13  14  15  16  17  18  19  20  21  23  24  26 0
 3-21G
 ****
 27  28  34  35  38  39  40  41  42  43  44  45  46  47  48 0
 3-21G
 ****


