%nproc=1
%NoSave
%Mem=1900MB
#P OB98/GEN NMR

erre ene a

0 1
  C      176.551      -6.384     -30.414
  O      175.243      -5.912     -30.138
  P      175.096      -4.700     -29.096
  C      173.462      -2.912     -30.057
  O      174.806      -3.375     -29.956
  C      173.318      -1.976     -31.255
  O      173.425      -2.722     -32.486
  C      171.982      -1.245     -31.335
  O      171.924      -0.182     -30.400
  C      171.992      -0.809     -32.798
  O      172.823       0.350     -32.963
  C      172.640      -2.022     -33.492
  N      168.979      -2.583     -37.036
  C      169.757      -1.532     -36.693
  N      170.695      -1.451     -35.728
  C      170.800      -2.624     -35.076
  C      170.063      -3.776     -35.290
  C      169.118      -3.732     -36.331
  N      168.322      -4.814     -36.663
  N      170.435      -4.768     -34.407
  C      171.388      -4.229     -33.680
  N      171.656      -2.935     -34.049
  O      176.592      -4.482     -28.584
  O      174.147      -4.950     -27.966
  H      172.475       1.046     -32.371
  H      176.608      -4.201     -27.646
  H      169.601      -0.625     -37.285
  H      171.922      -4.728     -32.876
  H      173.319      -1.731     -34.303
  H      170.993      -0.558     -33.183
  H      171.156      -1.941     -31.162
  H      174.148      -1.250     -31.222
  H      173.194      -2.367     -29.147
  H      167.571      -4.653     -37.319
  H      168.329      -5.616     -36.055
  H      172.794      -3.775     -30.155
  P      170.572      -0.037     -29.538
  C      171.530      -0.192     -27.156
  O      170.878      -0.884     -28.209
  O      169.574      -0.985     -30.347
  O      170.117       1.367     -29.326
  H      169.966      -1.854     -30.538
  H      171.622      -0.863     -26.305
  H      170.941       0.683     -26.857
  H      172.527       0.121     -27.474
  H      176.499      -7.187     -31.120
  H      177.002      -6.733     -29.509
  H      177.139      -5.588     -30.822

 3  4  5  6  7  8  9  10  11  12  22  25  29  30  31  32 0
 6-311+G(2d,p)
 ****
 33  36  37 0
 6-311+G(2d,p)
 ****
 1  2  13  14  15  16  17  18  19  20  21  23  24  26 0
 3-21G
 ****
 27  28  34  35  38  39  40  41  42  43  44  45  46  47  48 0
 3-21G
 ****


