%nproc=1
%NoSave
%Mem=1900MB
#P OB98/GEN NMR

erre ene a

0 1
  C      230.548    -884.563     216.216
  O      229.604    -884.641     215.166
  H      230.070    -884.100     217.079
  H      231.405    -883.956     215.912
  H      230.883    -885.567     216.496
  P      230.106    -885.336     213.803
  C      229.450    -883.449     212.123
  O      229.170    -884.742     212.643
  C      228.232    -882.528     212.327
  O      227.035    -883.265     211.941
  C      228.039    -882.076     213.789
  O      227.414    -880.780     213.780
  C      227.046    -883.104     214.299
  O      226.445    -882.659     215.489
  C      226.143    -883.217     213.077
  N      221.477    -884.957     214.211
  C      221.999    -883.705     214.202
  N      223.257    -883.325     213.885
  C      223.986    -884.395     213.509
  C      223.599    -885.721     213.462
  C      222.268    -885.995     213.851
  N      221.741    -887.261     213.880
  N      224.648    -886.522     213.056
  C      225.651    -885.685     212.845
  N      225.300    -884.395     213.107
  O      229.609    -886.851     213.970
  O      231.570    -885.250     213.537
  H      225.913    -883.370     215.909
  H      230.315    -887.390     214.364
  H      221.319    -882.917     214.498
  H      226.647    -885.967     212.527
  H      225.478    -882.342     212.958
  H      227.543    -884.055     214.517
  H      228.976    -882.030     214.354
  H      228.319    -881.672     211.649
  H      229.683    -883.538     211.068
  H      230.313    -883.029     212.654
  H      220.791    -887.378     214.195
  H      222.332    -888.052     213.648
  P      228.324    -879.481     213.525
  C      227.675    -878.536     215.864
  O      227.868    -878.275     214.492
  O      227.790    -878.981     212.089
  O      229.799    -879.718     213.468
  H      228.550    -878.764     211.514
  H      227.376    -877.636     216.360
  H      228.589    -878.892     216.291
  H      226.913    -879.278     215.982

 6  7  8  9  10  11  12  13  14  15  25  28  32  33  34  35 0
 6-311+G(2d,p)
 ****
 36  37  40 0
 6-311+G(2d,p)
 ****
 1  2  3  4  5  16  17  18  19  20  21  22  23  24 0
 3-21G
 ****
 26  27  29  30  31  38  39 41  42  43  44  45  46  47  48 0
 3-21G
 ****


