%nproc=1
%NoSave
%Mem=1900MB
#P OB98/GEN NMR

erre ene a

0 1
  C     -231.626    -580.568     -21.251
  O     -231.043    -579.745     -20.257
  P     -229.974    -580.335     -19.215
  C     -230.776    -578.593     -17.501
  O     -230.562    -579.973     -17.763
  C     -231.892    -578.421     -16.471
  O     -233.124    -578.905     -17.052
  C     -231.725    -579.207     -15.171
  O     -230.919    -578.564     -14.193
  C     -233.165    -579.250     -14.683
  O     -233.515    -577.988     -14.076
  C     -233.944    -579.444     -15.985
  N     -237.390    -583.186     -15.419
  C     -237.405    -581.879     -15.065
  N     -236.438    -580.949     -15.234
  C     -235.385    -581.479     -15.876
  C     -235.230    -582.785     -16.301
  C     -236.294    -583.665     -16.050
  N     -236.288    -584.989     -16.434
  N     -234.000    -582.957     -16.909
  C     -233.435    -581.769     -16.861
  N     -234.235    -580.839     -16.253
  O     -228.567    -579.912     -19.467
  O     -230.172    -581.915     -19.298
  H     -233.275    -577.289     -14.714
  H     -229.400    -582.371     -18.908
  H     -238.313    -581.532     -14.579
  H     -232.452    -581.531     -17.244
  H     -234.893    -578.893     -15.995
  H     -233.334    -580.021     -13.924
  H     -231.377    -580.225     -15.363
  H     -232.012    -577.352     -16.270
  H     -231.073    -578.102     -18.439
  H     -237.140    -585.506     -16.323
  H     -235.547    -585.303     -17.039
  H     -229.845    -578.131     -17.154
  P     -230.230    -579.499     -13.082
  C     -229.438    -577.402     -11.732
  O     -230.166    -578.607     -11.748
  O     -228.943    -580.114     -13.503
  O     -231.377    -580.568     -12.760
  H     -232.165    -580.211     -12.321
  H     -229.651    -576.873     -10.796
  H     -229.727    -576.760     -12.565
  H     -228.366    -577.609     -11.771
  H     -232.307    -579.989     -21.839
  H     -232.154    -581.373     -20.783
  H     -230.858    -580.964     -21.882

 3  4  5  6  7  8  9  10  11  12  22  25  29  30  31  32 0
 6-311+G(2d,p)
 ****
 33  36  37 0
 6-311+G(2d,p)
 ****
 1  2  13  14  15  16  17  18  19  20  21  23  24  26 0
 3-21G
 ****
 27  28  34  35  38  39  40  41  42  43  44  45  46  47  48 0
 3-21G
 ****


