%nproc=1
%NoSave
%Mem=1900MB
#P OB98/GEN NMR

erre ene a

0 1
  C      -11.534      34.805      23.482
  O      -11.218      34.734      24.861
  P      -11.711      33.457      25.695
  C      -10.950      30.943      25.733
  O      -10.983      32.182      25.050
  C      -11.436      29.817      24.815
  O      -12.819      30.075      24.445
  C      -10.634      29.667      23.515
  O      -10.590      28.268      23.205
  C      -11.489      30.410      22.504
  O      -11.229      30.011      21.168
  C      -12.894      30.061      23.007
  N      -13.926      30.985      22.538
  C      -14.783      30.548      21.533
  O      -14.710      29.441      21.004
  N      -15.731      31.452      21.126
  C      -15.859      32.738      21.564
  O      -16.715      33.509      21.151
  C      -14.895      33.159      22.590
  C      -13.997      32.276      23.028
  O      -13.226      33.332      25.202
  O      -11.537      33.599      27.168
  H      -13.343      33.571      24.267
  H      -11.941      30.363      20.604
  H      -16.387      31.143      20.425
  H      -14.955      34.177      22.953
  H      -13.275      32.563      23.783
  H      -13.155      29.038      22.708
  H      -11.292      31.486      22.583
  H       -9.619      30.061      23.601
  H      -11.422      28.880      25.384
  H      -11.601      30.994      26.609
  H       -9.931      30.749      26.082
  P       -9.274      27.695      22.476
  C       -6.848      27.238      23.343
  O       -8.026      28.006      23.428
  O       -9.107      28.777      21.303
  O       -9.398      26.298      21.962
  H       -9.167      29.691      21.621
  H       -6.029      27.796      23.805
  H       -6.582      27.026      22.304
  H       -6.982      26.298      23.884
  H      -11.138      35.710      23.071
  H      -12.597      34.792      23.359
  H      -11.106      33.966      22.974

 3  4  5  6  7  8  9  10  11  12  13  24  28  29  30  31  32 0
 6-311+G(2d,p)
 ****
 33  34 0
 6-311+G(2d,p)
 ****
 1  2  14  15  16  17  18  19  20  21  22  23  25  26  27 0
 3-21G
 ****
 35  36  37  38  39  40  41  42  43  44  45 0
 3-21G
 ****


