%nproc=1
%NoSave
%Mem=1900MB
#P OB98/GEN NMR

erre ene a

0 1
  C     -144.227     836.674    -246.342
  O     -143.351     837.771    -246.056
  P     -142.964     838.028    -244.521
  C     -140.549     838.870    -244.971
  O     -141.839     839.174    -244.458
  C     -140.461     839.157    -246.478
  O     -140.739     840.562    -246.752
  C     -139.090     838.852    -247.080
  O     -139.274     838.464    -248.446
  C     -138.404     840.206    -247.049
  O     -137.291     840.254    -247.939
  C     -139.581     841.113    -247.410
  N     -138.096     845.677    -248.964
  C     -138.155     844.476    -249.648
  N     -137.800     844.507    -250.950
  N     -138.535     843.351    -249.103
  C     -138.896     843.479    -247.801
  C     -138.870     844.610    -247.013
  C     -138.424     845.843    -247.624
  O     -138.337     846.930    -247.060
  N     -139.284     844.333    -245.734
  C     -139.553     843.037    -245.753
  N     -139.364     842.487    -246.990
  O     -142.161     836.696    -244.132
  O     -144.141     838.234    -243.626
  H     -137.626     840.033    -248.835
  H     -142.703     836.151    -243.537
  H     -137.790     846.514    -249.428
  H     -139.883     842.457    -244.905
  H     -139.775     841.135    -248.487
  H     -138.042     840.415    -246.037
  H     -137.549     845.350    -251.439
  H     -138.519     838.077    -246.561
  H     -137.879     843.652    -251.487
  H     -141.230     838.568    -246.992
  H     -140.308     837.818    -244.792
  H     -139.803     839.448    -244.411
  P     -138.746     837.012    -248.868
  C     -140.540     835.760    -250.260
  O     -139.453     836.658    -250.261
  O     -139.458     836.030    -247.822
  O     -137.254     836.857    -248.850
  H     -138.936     835.214    -247.715
  H     -141.474     836.327    -250.369
  H     -140.588     835.171    -249.333
  H     -140.441     835.083    -251.102
  H     -144.399     836.620    -247.397
  H     -145.158     836.820    -245.836
  H     -143.778     835.762    -246.007

 3  4  5  6  7  8  9  10  11  12  23  26  30  31 0
 6-311+G(2d,p)
 ****
 33  35  36  37  38 0
 6-311+G(2d,p)
 ****
 1  2  13  14  15  16  17  18  19  20  21  22  24  25 0
 3-21G
 ****
 27  28  29  32  34  39  40  41  42  43  44  45  46  47  48  49 0
 3-21G
 ****


