%nproc=1
%NoSave
%Mem=1900MB
#P OB98/GEN NMR

erre ene a

0 1
  C     -212.498     336.966     206.369
  O     -213.218     336.578     207.519
  H     -212.332     338.045     206.404
  H     -213.070     336.728     205.468
  H     -211.527     336.461     206.336
  P     -213.489     335.007     207.710
  C     -215.965     335.268     208.437
  O     -214.651     334.875     208.810
  C     -216.983     334.794     209.471
  O     -216.744     333.386     209.758
  C     -216.927     335.550     210.811
  O     -218.260     335.651     211.318
  C     -216.151     334.592     211.704
  O     -216.381     334.829     213.088
  C     -216.681     333.255     211.189
  N     -216.021     329.745     214.735
  C     -217.009     330.699     214.589
  N     -217.980     330.721     215.529
  N     -217.052     331.552     213.599
  C     -216.043     331.394     212.717
  C     -215.000     330.501     212.745
  C     -214.951     329.577     213.860
  O     -214.089     328.725     214.054
  N     -214.159     330.678     211.675
  C     -214.697     331.675     210.996
  N     -215.837     332.142     211.587
  O     -212.176     334.514     208.483
  O     -213.714     334.239     206.448
  H     -217.336     334.678     213.265
  H     -211.512     334.192     207.849
  H     -216.027     329.125     215.521
  H     -214.295     332.096     210.084
  H     -217.690     333.036     211.562
  H     -215.076     334.687     211.514
  H     -218.035     330.061     216.294
  H     -216.473     336.543     210.751
  H     -218.735     331.380     215.418
  H     -217.984     334.864     209.029
  H     -216.205     334.822     207.464
  H     -216.001     336.358     208.347
  P     -218.928     337.109     211.398
  C     -220.105     336.571     213.657
  O     -220.242     337.009     212.314
  O     -219.533     337.301     209.928
  O     -217.973     338.203     211.749
  H     -219.566     338.253     209.708
  H     -221.066     336.560     214.128
  H     -219.456     337.238     214.185
  H     -219.690     335.585     213.670

 6  7  8  9  10  11  12  13  14  15  26  29  33  34 0
 6-311+G(2d,p)
 ****
 36  38  39  40  41 0
 6-311+G(2d,p)
 ****
 1  2  3  4  5  16  17  18  19  20  21  22  23  24  25 0
 3-21G
 ****
 27  28  30  31  32  35  37  42  43  44  45  46  47 0
 3-21G
 ****
 48  49 0
 3-21G
 ****


