%nproc=1
%NoSave
%Mem=1900MB
#P OB98/GEN NMR

erre ene a

0 1
  C      249.433       4.440     100.233
  O      248.482       4.258     101.265
  H      248.911       4.751      99.326
  H      249.958       3.501     100.037
  H      250.150       5.217     100.512
  P      249.057       3.812     102.693
  C      247.605       1.672     103.028
  O      247.871       3.012     103.418
  C      246.104       1.473     102.792
  O      245.724       2.178     101.574
  C      245.694       0.003     102.600
  O      244.338      -0.141     103.055
  C      245.741      -0.135     101.087
  O      245.088      -1.310     100.665
  C      245.121       1.204     100.693
  N      243.814       0.267      95.840
  C      243.347      -0.225      97.007
  N      243.736       0.081      98.261
  C      244.700       1.017      98.245
  C      245.272       1.617      97.136
  C      244.791       1.203      95.880
  N      245.271       1.697      94.689
  N      246.238       2.531      97.517
  C      246.247       2.480      98.834
  N      245.343       1.575      99.316
  O      249.138       5.190     103.503
  O      250.369       3.102     102.665
  H      245.263      -1.483      99.716
  H      250.037       5.561     103.440
  H      242.556      -0.967      96.923
  H      246.890       3.065      99.482
  H      244.039       1.219     100.872
  H      246.775      -0.205     100.734
  H      246.336      -0.701     103.137
  H      245.547       1.938     103.614
  H      247.949       1.005     103.825
  H      248.152       1.445     102.108
  H      244.884       1.336      93.831
  H      246.012       2.383      94.704
  P      244.034      -1.073     104.329
  C      241.448      -1.470     104.322
  O      242.553      -0.756     104.856
  O      244.943      -0.392     105.464
  O      244.381      -2.517     104.174
  H      245.201      -1.064     106.122
  H      240.546      -1.130     104.786
  H      241.574      -2.516     104.511
  H      241.391      -1.302     103.267

 6  7  8  9  10  11  12  13  14  15  25  28  32  33  34  35 0
 6-311+G(2d,p)
 ****
 36  37  40 0
 6-311+G(2d,p)
 ****
 1  2  3  4  5  16  17  18  19  20  21  22  23  24 0
 3-21G
 ****
 26  27  29  30  31  38  39 41  42  43  44  45  46  47  48 0
 3-21G
 ****


