%nproc=1
%NoSave
%Mem=1900MB
#P OB98/GEN NMR

erre ene a

0 1
  C     -674.927      -2.163     386.694
  O     -674.841      -3.040     387.798
  H     -675.782      -1.495     386.842
  H     -675.091      -2.728     385.769
  H     -674.020      -1.552     386.604
  P     -673.582      -4.023     387.899
  C     -672.980      -3.048     390.211
  O     -672.526      -3.339     388.894
  C     -672.065      -2.006     390.855
  O     -671.985      -0.822     390.026
  C     -672.540      -1.525     392.222
  O     -672.289      -2.480     393.228
  C     -671.760      -0.229     392.364
  O     -670.420      -0.479     392.803
  C     -671.781       0.311     390.915
  N     -672.796       1.338     390.703
  C     -672.414       2.657     390.942
  O     -671.292       2.955     391.359
  N     -673.369       3.606     390.737
  C     -674.679       3.370     390.419
  O     -675.530       4.257     390.327
  C     -675.038       1.970     390.191
  C     -674.107       1.026     390.341
  O     -673.015      -4.486     386.597
  O     -674.143      -5.263     388.767
  H     -669.938       0.368     392.723
  H     -674.300      -6.017     388.172
  H     -673.118       4.565     390.923
  H     -676.063       1.733     389.921
  H     -674.350      -0.025     390.182
  H     -670.805       0.733     390.643
  H     -672.217       0.449     393.085
  H     -673.614      -1.289     392.186
  H     -671.054      -2.437     390.929
  H     -672.958      -3.969     390.797
  H     -674.016      -2.678     390.159
  P     -673.471      -3.389     393.800
  C     -672.630      -5.801     394.084
  O     -673.284      -4.879     393.218
  O     -674.855      -2.820     393.635
  O     -673.116      -3.562     395.356
  H     -673.833      -3.189     395.896
  H     -672.559      -6.754     393.602
  H     -673.192      -5.900     394.989
  H     -671.648      -5.442     394.311

 6  7  8  9  10  11  12  13  14  15  16  26  31  32  33  34  35 0
 6-311+G(2d,p)
 ****
 36  37 0
 6-311+G(2d,p)
 ****
 1  2  3  4  5  17  18  19  20  21  22  23  24  25 0
 3-21G
 ****
 27  28  29  30  38  39  40  41  42  43  44  45 0
 3-21G
 ****


