%nproc=1
%NoSave
%Mem=1900MB
#P OB98/GEN NMR

erre ene a

0 1
  C     -309.629    -155.293    -690.192
  O     -308.750    -154.176    -690.047
  P     -307.566    -154.299    -688.962
  C     -309.039    -152.965    -687.290
  O     -308.269    -154.145    -687.532
  C     -308.850    -152.489    -685.847
  O     -309.379    -153.464    -684.930
  C     -307.394    -152.281    -685.437
  O     -306.888    -151.017    -685.870
  C     -307.519    -152.316    -683.921
  O     -308.002    -151.046    -683.439
  C     -308.578    -153.410    -683.719
  N     -307.941    -157.012    -680.143
  C     -308.492    -155.779    -680.091
  N     -308.618    -154.876    -681.082
  C     -308.062    -155.342    -682.213
  C     -307.433    -156.563    -682.411
  C     -307.388    -157.427    -681.318
  N     -306.843    -158.700    -681.380
  N     -306.985    -156.675    -683.713
  C     -307.347    -155.543    -684.297
  N     -308.011    -154.716    -683.441
  O     -306.770    -152.914    -689.139
  O     -306.675    -155.488    -689.140
  H     -308.263    -151.186    -682.502
  H     -305.853    -153.015    -688.829
  H     -308.893    -155.494    -679.125
  H     -307.156    -155.298    -685.327
  H     -309.266    -153.159    -682.891
  H     -306.563    -152.501    -683.423
  H     -306.761    -153.121    -685.784
  H     -309.429    -151.560    -685.724
  H     -310.098    -153.186    -687.458
  H     -307.021    -159.321    -680.598
  H     -306.626    -159.066    -682.287
  H     -308.733    -152.181    -688.001
  P     -305.327    -150.959    -686.253
  C     -304.725    -150.798    -683.719
  O     -304.553    -151.482    -684.947
  O     -305.026    -149.391    -686.288
  O     -304.994    -151.638    -687.543
  H     -304.268    -149.198    -686.869
  H     -304.390    -151.442    -682.913
  H     -305.784    -150.536    -683.565
  H     -304.118    -149.890    -683.722
  H     -310.362    -155.075    -690.941
  H     -310.118    -155.486    -689.260
  H     -309.066    -156.155    -690.484

 3  4  5  6  7  8  9  10  11  12  22  25  29  30  31  32 0
 6-311+G(2d,p)
 ****
 33  36  37 0
 6-311+G(2d,p)
 ****
 1  2  13  14  15  16  17  18  19  20  21  23  24  26 0
 3-21G
 ****
 27  28  34  35  38  39  40  41  42  43  44  45  46  47  48 0
 3-21G
 ****


