%nproc=1
%NoSave
%Mem=1900MB
#P OB98/GEN NMR

erre ene a

0 1
  C     -264.548     232.776     -68.017
  O     -264.647     234.045     -67.403
  H     -264.522     231.987     -67.259
  H     -265.426     232.626     -68.652
  H     -263.649     232.728     -68.638
  P     -263.500     234.412     -66.342
  C     -264.991     235.337     -64.434
  O     -264.065     235.635     -65.468
  C     -265.024     236.466     -63.414
  O     -263.779     236.520     -62.686
  C     -265.202     237.858     -64.009
  O     -266.556     238.121     -64.351
  C     -264.741     238.724     -62.845
  O     -265.806     238.857     -61.887
  C     -263.596     237.893     -62.247
  N     -259.832     241.279     -61.384
  C     -261.039     241.101     -60.798
  N     -261.991     240.191     -61.085
  C     -261.596     239.390     -62.087
  C     -260.398     239.447     -62.781
  C     -259.493     240.451     -62.399
  N     -258.273     240.633     -63.015
  N     -260.338     238.454     -63.734
  C     -261.478     237.805     -63.622
  N     -262.276     238.337     -62.643
  O     -262.364     235.098     -67.241
  O     -262.959     233.262     -65.562
  H     -265.861     238.008     -61.409
  H     -261.489     234.855     -66.885
  H     -261.268     241.783     -59.983
  H     -261.764     236.948     -64.218
  H     -263.637     237.881     -61.151
  H     -264.447     239.731     -63.148
  H     -264.533     238.012     -64.863
  H     -265.823     236.249     -62.693
  H     -264.692     234.409     -63.931
  H     -257.594     241.229     -62.574
  H     -258.022     240.002     -63.770
  H     -265.982     235.193     -64.877
  P     -266.851     238.662     -65.837
  C     -268.653     240.503     -65.502
  O     -268.383     239.141     -65.821
  O     -266.890     237.322     -66.708
  O     -265.858     239.639     -66.363
  H     -266.667     237.525     -67.639
  H     -269.709     240.673     -65.531
  H     -268.170     241.139     -66.214
  H     -268.283     240.720     -64.522

 6  7  8  9  10  11  12  13  14  15  25  28  32  33  34  35 0
 6-311+G(2d,p)
 ****
 36  39  40 0
 6-311+G(2d,p)
 ****
 1  2  3  4  5  16  17  18  19  20  21  22  23  24 0
 3-21G
 ****
 26  27  29  30  31  37  38  41  42  43  44  45  46  47  48 0
 3-21G
 ****


