%nproc=1
%NoSave
%Mem=1900MB
#P OB98/GEN NMR

erre ene a

0 1
  C     -914.367     727.250     439.412
  O     -914.413     726.278     438.373
  H     -913.395     727.184     439.904
  H     -915.152     727.068     440.150
  H     -914.483     728.250     438.990
  P     -915.837     725.978     437.688
  C     -915.135     727.346     435.612
  O     -916.089     727.206     436.664
  C     -915.826     727.397     434.244
  O     -916.747     728.512     434.176
  C     -914.860     727.616     433.078
  O     -913.978     726.547     432.828
  C     -915.818     728.073     431.982
  O     -916.456     726.972     431.328
  C     -916.869     728.892     432.795
  N     -916.707     730.333     432.596
  C     -916.875     730.792     431.303
  O     -917.099     730.054     430.333
  N     -916.719     732.142     431.127
  C     -916.386     733.033     432.092
  O     -916.257     734.239     431.872
  C     -916.195     732.491     433.443
  C     -916.368     731.174     433.645
  O     -916.980     725.729     438.630
  O     -915.531     724.751     436.708
  H     -916.597     726.280     431.997
  H     -916.376     724.315     436.409
  H     -916.846     732.491     430.195
  H     -915.922     733.172     434.244
  H     -916.223     730.741     434.624
  H     -917.882     728.612     432.487
  H     -915.302     728.658     431.206
  H     -914.237     728.497     433.312
  H     -916.395     726.482     434.118
  H     -914.457     726.487     435.645
  H     -914.556     728.263     435.778
  P     -912.617     726.712     432.038
  C     -911.256     727.538     434.119
  O     -911.698     727.798     432.783
  O     -912.704     726.787     430.550
  O     -911.855     725.327     432.418
  H     -911.337     725.069     431.637
  H     -910.659     728.356     434.463
  H     -910.674     726.640     434.134
  H     -912.105     727.423     434.760

 6  7  8  9  10  11  12  13  14  15  16  26  31  32  33  34  35 0
 6-311+G(2d,p)
 ****
 36  37 0
 6-311+G(2d,p)
 ****
 1  2  3  4  5  17  18  19  20  21  22  23  24  25 0
 3-21G
 ****
 27  28  29  30  38  39  40  41  42  43  44  45 0
 3-21G
 ****


