%nproc=1
%NoSave
%Mem=1900MB
#P OB98/GEN NMR

erre ene a

0 1
  C       16.912      20.614     -24.572
  O       17.167      21.478     -25.664
  H       17.222      21.113     -23.649
  H       17.479      19.684     -24.669
  H       15.844      20.389     -24.509
  P       16.941      20.912     -27.146
  C       19.024      19.383     -27.275
  O       18.404      20.588     -27.711
  C       20.259      19.094     -28.123
  O       19.869      18.588     -29.415
  C       21.101      20.331     -28.398
  O       21.857      20.690     -27.259
  C       21.903      19.869     -29.598
  O       23.007      19.045     -29.202
  C       20.850      19.046     -30.375
  N       20.219      19.806     -31.448
  C       20.768      19.639     -32.724
  O       21.722      18.883     -32.898
  N       20.230      20.353     -33.765
  C       19.227      21.147     -33.558
  N       18.742      21.826     -34.632
  C       18.611      21.342     -32.232
  C       19.154      20.651     -31.232
  O       16.094      21.740     -28.063
  O       16.317      19.458     -26.902
  H       23.482      18.822     -30.026
  H       15.345      19.507     -26.855
  H       17.773      22.010     -32.106
  H       18.760      20.733     -30.224
  H       21.308      18.150     -30.812
  H       22.304      20.712     -30.159
  H       20.461      21.160     -28.716
  H       20.849      18.317     -27.621
  H       19.203      21.669     -35.522
  H       18.289      18.581     -27.391
  H       17.915      22.400     -34.608
  H       19.300      19.451     -26.217
  P       21.566      22.065     -26.487
  C       22.939      23.773     -27.846
  O       22.891      22.952     -26.682
  O       21.094      21.919     -25.080
  O       20.505      22.797     -27.440
  H       19.611      22.382     -27.369
  H       23.863      24.312     -27.865
  H       22.123      24.465     -27.828
  H       22.867      23.159     -28.719

 6  7  8  9  10  11  12  13  14  15  16  26  30  31  32  33  35 0
 6-311+G(2d,p)
 ****
 37  38 0
 6-311+G(2d,p)
 ****
 1  2  3  4  5  17  18  19  20  21  22  23  24  25 0
 3-21G
 ****
 27  28  29  34  36  39  40  41  42  43  44  45  46 0
 3-21G
 ****


