%nproc=1
%NoSave
%Mem=1900MB
#P OB98/GEN NMR

erre ene a

0 1
  C     2154.380     -26.878     995.508
  O     2155.461     -27.514     996.219
  P     2155.544     -29.131     996.202
  C     2157.932     -29.484     995.276
  O     2156.523     -29.599     995.009
  C     2158.757     -29.882     994.032
  O     2158.596     -31.314     993.732
  C     2158.314     -29.098     992.754
  O     2159.438     -28.902     991.894
  C     2157.386     -30.136     992.076
  O     2157.257     -29.826     990.679
  C     2158.124     -31.437     992.394
  N     2156.319     -35.095     989.262
  C     2157.242     -34.140     989.079
  N     2157.686     -33.223     989.978
  C     2157.097     -33.367     991.149
  C     2156.142     -34.316     991.500
  C     2155.753     -35.212     990.491
  N     2154.782     -36.189     990.683
  N     2155.727     -34.154     992.815
  C     2156.405     -33.091     993.248
  N     2157.260     -32.603     992.258
  O     2154.241     -29.847     996.206
  O     2156.417     -29.475     997.500
  H     2156.549     -30.351     990.310
  H     2155.998     -30.223     997.970
  H     2157.692     -34.076     988.092
  H     2156.289     -32.667     994.230
  H     2159.013     -31.587     991.753
  H     2156.418     -30.100     992.552
  H     2157.815     -28.163     992.959
  H     2159.815     -29.717     994.234
  H     2158.201     -30.142     996.095
  H     2154.495     -36.707     989.905
  H     2154.220     -36.200     991.521
  H     2158.163     -28.454     995.607
  P     2160.410     -27.694     992.322
  C     2162.157     -29.119     993.710
  O     2161.090     -28.121     993.686
  O     2159.741     -26.336     992.323
  O     2161.581     -27.824     991.233
  H     2161.966     -28.704     991.140
  H     2162.549     -29.170     994.717
  H     2162.913     -28.805     993.010
  H     2161.726     -30.086     993.412
  H     2154.461     -25.816     995.612
  H     2153.445     -27.206     995.913
  H     2154.432     -27.140     994.472

 3  4  5  6  7  8  9  10  11  12  22  25  29  30  31  32 0
 6-311+G(2d,p)
 ****
 33  36  37 0
 6-311+G(2d,p)
 ****
 1  2  13  14  15  16  17  18  19  20  21  23  24  26 0
 3-21G
 ****
 27  28  34  35  38  39  40  41  42  43  44  45  46  47  48 0
 3-21G
 ****


