%nproc=1
%NoSave
%Mem=1900MB
#P OB98/GEN NMR

erre ene a

0 1
  C     -215.059    -352.405    -296.778
  O     -216.035    -352.635    -297.799
  P     -217.525    -352.091    -297.602
  C     -217.707    -349.814    -298.821
  O     -217.949    -351.217    -298.878
  C     -217.947    -349.181    -300.194
  O     -216.991    -349.657    -301.171
  C     -219.313    -349.529    -300.776
  O     -220.437    -348.962    -300.148
  C     -219.116    -349.224    -302.260
  O     -219.290    -347.836    -302.539
  C     -217.633    -349.637    -302.467
  N     -217.500    -350.924    -303.148
  C     -217.513    -350.885    -304.538
  O     -217.679    -349.848    -305.184
  N     -217.373    -352.091    -305.168
  C     -217.256    -353.307    -304.568
  O     -217.152    -354.357    -305.187
  C     -217.267    -353.292    -303.094
  C     -217.386    -352.119    -302.463
  O     -217.822    -351.468    -296.281
  O     -218.413    -353.423    -297.798
  H     -220.237    -347.637    -302.430
  H     -219.126    -353.402    -297.131
  H     -217.376    -352.078    -306.182
  H     -217.181    -354.236    -302.581
  H     -217.392    -352.085    -301.376
  H     -217.105    -348.884    -303.064
  H     -219.827    -349.776    -302.880
  H     -219.442    -350.617    -300.697
  H     -217.817    -348.100    -300.107
  H     -216.684    -349.628    -298.488
  H     -218.368    -349.375    -298.060
  P     -221.822    -349.753    -299.946
  C     -222.644    -348.917    -297.634
  O     -222.785    -348.852    -299.035
  O     -221.740    -351.207    -299.632
  O     -222.497    -349.582    -301.401
  H     -223.023    -350.384    -301.588
  H     -223.392    -348.260    -297.177
  H     -221.650    -348.585    -297.332
  H     -222.819    -349.942    -297.277
  H     -214.125    -352.834    -297.074
  H     -215.385    -352.857    -295.865
  H     -214.937    -351.352    -296.632

 3  4  5  6  7  8  9  10  11  12  13  23  28  29  30  31  32 0
 6-311+G(2d,p)
 ****
 33  34 0
 6-311+G(2d,p)
 ****
 1  2  14  15  16  17  18  19  20  21  22  24  25  26  27 0
 3-21G
 ****
 35  36  37  38  39  40  41  42  43  44  45 0
 3-21G
 ****


