%nproc=1
%NoSave
%Mem=1900MB
#P OB98/GEN NMR

erre ene a

0 1
  C       46.072      45.019      19.978
  O       47.113      45.059      20.929
  H       45.440      44.152      20.188
  H       46.495      44.910      18.976
  H       45.456      45.921      20.021
  P       47.902      46.432      21.149
  C       49.649      47.848      19.879
  O       48.927      46.623      19.926
  C       51.054      47.654      19.310
  O       51.871      46.942      20.266
  C       51.059      46.825      18.023
  O       50.858      47.577      16.839
  C       52.455      46.208      18.049
  O       53.419      47.070      17.423
  C       52.752      46.068      19.547
  N       55.050      41.717      20.936
  C       55.599      42.832      20.329
  N       56.913      42.753      20.027
  N       54.911      43.904      20.038
  C       53.591      43.794      20.311
  C       52.930      42.735      20.892
  C       53.713      41.580      21.280
  O       53.278      40.576      21.834
  N       51.578      42.966      20.975
  C       51.415      44.125      20.367
  N       52.614      44.701      20.019
  O       48.885      46.104      22.375
  O       47.049      47.624      21.463
  H       54.307      46.695      17.581
  H       49.035      46.912      22.899
  H       55.636      40.933      21.163
  H       50.462      44.610      20.193
  H       53.777      46.384      19.782
  H       52.474      45.263      17.500
  H       57.468      41.923      20.149
  H       50.327      46.014      18.082
  H       57.309      43.469      19.413
  H       51.521      48.636      19.157
  H       49.707      48.214      20.906
  H       49.099      48.591      19.296
  P       49.896      47.044      15.680
  C       49.841      44.845      14.244
  O       50.587      45.781      14.992
  O       50.010      48.182      14.562
  O       48.479      46.795      16.085
  H       49.250      48.792      14.613
  H       50.494      44.083      13.873
  H       49.369      45.341      13.422
  H       49.095      44.402      14.870

 6  7  8  9  10  11  12  13  14  15  26  29  33  34 0
 6-311+G(2d,p)
 ****
 36  38  39  40  41 0
 6-311+G(2d,p)
 ****
 1  2  3  4  5  16  17  18  19  20  21  22  23  24  25 0
 3-21G
 ****
 27  28  30  31  32  35  37  42  43  44  45  46  47 0
 3-21G
 ****
 48  49 0
 3-21G
 ****


