%nproc=1
%NoSave
%Mem=1900MB
#P OB98/GEN NMR

erre ene a

0 1
  C      541.336    -248.231    -106.398
  O      541.900    -246.960    -106.631
  H      541.934    -248.744    -105.641
  H      541.362    -248.817    -107.319
  H      540.308    -248.153    -106.039
  P      541.009    -245.839    -107.343
  C      541.549    -244.077    -105.536
  O      541.590    -244.403    -106.917
  C      541.763    -242.581    -105.295
  O      543.117    -242.209    -105.623
  C      540.858    -241.719    -106.179
  O      539.548    -241.501    -105.686
  C      541.640    -240.409    -106.238
  O      541.336    -239.574    -105.108
  C      543.100    -240.885    -106.179
  N      545.130    -238.123    -109.967
  C      544.489    -237.686    -108.820
  N      544.322    -236.350    -108.700
  N      544.047    -238.494    -107.896
  C      544.198    -239.808    -108.200
  C      544.805    -240.355    -109.309
  C      545.344    -239.450    -110.300
  O      545.915    -239.781    -111.338
  N      544.778    -241.730    -109.270
  C      544.092    -242.008    -108.176
  N      543.742    -240.874    -107.479
  O      539.619    -245.897    -106.537
  O      540.788    -246.034    -108.812
  H      541.879    -238.770    -105.163
  H      538.892    -245.588    -107.108
  H      545.479    -237.455    -110.629
  H      543.847    -243.006    -107.835
  H      543.699    -240.250    -105.517
  H      541.396    -239.831    -107.134
  H      544.544    -235.701    -109.437
  H      540.808    -242.132    -107.192
  H      543.635    -236.016    -108.020
  H      541.611    -242.360    -104.228
  H      542.345    -244.648    -105.054
  H      540.606    -244.406    -105.096
  P      538.307    -241.462    -106.696
  C      536.508    -242.422    -105.080
  O      536.982    -241.307    -105.805
  O      538.235    -242.972    -107.231
  O      538.437    -240.488    -107.813
  H      538.701    -243.045    -108.087
  H      535.623    -242.149    -104.544
  H      537.259    -242.743    -104.389
  H      536.283    -243.219    -105.758

 6  7  8  9  10  11  12  13  14  15  26  29  33  34 0
 6-311+G(2d,p)
 ****
 36  38  39  40  41 0
 6-311+G(2d,p)
 ****
 1  2  3  4  5  16  17  18  19  20  21  22  23  24  25 0
 3-21G
 ****
 27  28  30  31  32  35  37  42  43  44  45  46  47 0
 3-21G
 ****
 48  49 0
 3-21G
 ****


