%nproc=1
%NoSave
%Mem=1900MB
#P OB98/GEN NMR

erre ene a

0 1
  C       55.981     -20.984       6.541
  O       55.626     -22.206       5.919
  P       54.434     -22.202       4.850
  C       52.751     -22.945       6.687
  O       53.288     -23.183       5.396
  C       52.110     -24.220       7.241
  O       51.614     -23.963       8.589
  C       50.927     -24.736       6.409
  O       50.934     -26.168       6.490
  C       49.731     -24.190       7.167
  O       48.524     -24.875       6.875
  C       50.227     -24.355       8.607
  N       49.457     -23.568       9.568
  C       48.288     -24.133      10.066
  O       47.870     -25.245       9.745
  N       47.559     -23.345      10.915
  C       47.829     -22.047      11.237
  O       47.073     -21.357      11.911
  C       49.077     -21.502      10.682
  C       49.822     -22.274       9.887
  O       55.054     -22.996       3.607
  O       53.950     -20.845       4.461
  H       48.309     -24.705       5.940
  H       55.353     -22.372       2.920
  H       46.715     -23.743      11.295
  H       49.333     -20.481      10.934
  H       50.737     -21.891       9.447
  H       50.197     -25.413       8.898
  H       49.590     -23.134       6.912
  H       50.950     -24.413       5.365
  H       52.884     -24.993       7.322
  H       51.994     -22.163       6.622
  H       53.543     -22.590       7.355
  P       51.542     -26.987       5.249
  C       49.959     -25.989       3.425
  O       50.370     -27.117       4.166
  O       51.646     -28.455       5.883
  O       52.847     -26.453       4.758
  H       50.860     -28.696       6.400
  H       50.797     -25.319       3.212
  H       49.196     -25.445       3.986
  H       49.528     -26.325       2.479
  H       56.788     -21.152       7.223
  H       55.138     -20.597       7.074
  H       56.286     -20.280       5.795

 3  4  5  6  7  8  9  10  11  12  13  23  28  29  30  31  32 0
 6-311+G(2d,p)
 ****
 33  34 0
 6-311+G(2d,p)
 ****
 1  2  14  15  16  17  18  19  20  21  22  24  25  26 0
 3-21G
 ****
 27  35  36  37  38  39  40  41  42  43  44  45 0
 3-21G
 ****


