%nproc=1
%NoSave
%Mem=1900MB
#P OB98/GEN NMR

erre ene a

0 1
  C       42.293     -58.567     131.793
  O       41.971     -57.385     131.090
  H       42.897     -59.206     131.143
  H       41.386     -59.111     132.073
  H       42.876     -58.331     132.688
  P       40.987     -56.326     131.791
  C       38.934     -57.374     130.608
  O       39.740     -56.218     130.780
  C       37.943     -57.159     129.465
  O       37.000     -58.250     129.384
  C       37.078     -55.908     129.589
  O       37.781     -54.706     129.311
  C       36.015     -56.216     128.544
  O       36.556     -55.998     127.229
  C       35.775     -57.728     128.797
  N       34.636     -57.982     129.680
  C       33.362     -57.775     129.136
  O       33.234     -57.399     127.971
  N       32.261     -57.965     129.934
  C       32.416     -58.312     131.176
  N       31.295     -58.441     131.938
  C       33.739     -58.558     131.787
  C       34.792     -58.369     130.993
  O       41.598     -55.022     132.194
  O       40.340     -57.132     133.014
  H       35.815     -56.055     126.602
  H       39.731     -56.515     133.488
  H       33.814     -58.836     132.829
  H       35.800     -58.516     131.375
  H       35.616     -58.258     127.854
  H       35.123     -55.592     128.639
  H       36.598     -55.862     130.572
  H       38.517     -57.163     128.526
  H       30.410     -58.224     131.497
  H       38.409     -57.566     131.550
  H       31.341     -58.430     132.952
  H       39.559     -58.237     130.364
  P       37.582     -53.472     130.317
  C       36.169     -52.367     128.424
  O       37.166     -52.207     129.417
  O       39.076     -53.136     130.773
  O       36.665     -53.718     131.475
  H       39.300     -53.594     131.609
  H       36.014     -51.435     127.921
  H       35.255     -52.681     128.884
  H       36.485     -53.106     127.717

 6  7  8  9  10  11  12  13  14  15  16  26  30  31  32  33  35 0
 6-311+G(2d,p)
 ****
 37  38 0
 6-311+G(2d,p)
 ****
 1  2  3  4  5  17  18  19  20  21  22  23  24  25 0
 3-21G
 ****
 27  28  29  34  36  39  40  41  42  43  44  45  46 0
 3-21G
 ****


