%nproc=1
%NoSave
%Mem=1900MB
#P OB98/GEN NMR

erre ene a

0 1
  C      986.874    -623.811    -331.455
  O      985.955    -624.795    -330.985
  P      984.755    -624.453    -329.951
  C      982.707    -625.508    -331.131
  O      983.370    -624.298    -330.801
  C      981.592    -625.244    -332.159
  O      980.555    -624.399    -331.575
  C      982.074    -624.568    -333.460
  O      981.324    -625.170    -334.540
  C      981.639    -623.131    -333.249
  O      981.573    -622.353    -334.420
  C      980.297    -623.349    -332.544
  N      979.702    -622.183    -331.893
  C      978.932    -621.310    -332.677
  O      978.805    -621.489    -333.889
  N      978.345    -620.232    -332.074
  C      978.508    -620.002    -330.806
  N      977.894    -618.931    -330.273
  C      979.328    -620.903    -329.940
  C      979.885    -621.936    -330.544
  O      985.042    -623.297    -329.060
  O      984.531    -625.780    -329.100
  H      984.292    -625.554    -328.184
  H      980.959    -622.759    -335.040
  H      979.427    -620.691    -328.879
  H      980.470    -622.654    -329.962
  H      979.567    -623.751    -333.289
  H      982.362    -622.644    -332.584
  H      983.123    -624.686    -333.659
  H      981.109    -626.208    -332.382
  H      977.324    -618.353    -330.882
  H      982.258    -625.906    -330.224
  H      977.949    -618.684    -329.289
  H      983.438    -626.220    -331.522
  P      982.071    -625.622    -335.879
  C      982.417    -627.959    -334.787
  O      982.999    -626.884    -335.512
  O      983.180    -624.459    -336.029
  O      981.251    -625.691    -337.117
  H      983.429    -624.364    -336.965
  H      982.746    -628.909    -335.264
  H      981.336    -627.928    -334.766
  H      982.817    -627.925    -333.774
  H      987.574    -624.267    -332.124
  H      987.399    -623.388    -330.624
  H      986.339    -623.040    -331.969

 3  4  5  6  7  8  9  10  11  12  13  24  27  28  29  30  32 0
 6-311+G(2d,p)
 ****
 34  35 0
 6-311+G(2d,p)
 ****
 1  2  14  15  16  17  18  19  20  21  22  23  25  26 0
 3-21G
 ****
 31  33  36  37  38  39  40  41  42  43  44  45  46 0
 3-21G
 ****


