%nproc=1
%NoSave
%Mem=1900MB
#P OB98/GEN NMR

erre ene a

0 1
  C       24.742     138.972     166.441
  O       24.781     137.898     167.363
  H       24.696     138.562     165.430
  H       25.644     139.582     166.536
  H       23.853     139.584     166.617
  P       24.826     138.292     168.918
  C       27.385     137.958     168.688
  O       26.333     138.794     169.154
  C       28.443     137.774     169.774
  O       28.988     139.046     170.169
  C       27.922     137.131     171.054
  O       27.843     135.722     170.915
  C       29.008     137.541     172.038
  O       30.150     136.675     171.891
  C       29.366     138.964     171.570
  N       29.904     143.701     173.474
  C       30.798     142.840     172.944
  N       30.593     141.583     172.496
  C       29.305     141.229     172.642
  C       28.279     142.002     173.167
  C       28.617     143.299     173.589
  N       27.698     144.177     174.121
  N       27.089     141.304     173.158
  C       27.381     140.152     172.588
  N       28.716     140.044     172.290
  O       24.316     137.259     169.863
  O       24.006     139.668     168.907
  H       30.818     136.955     172.545
  H       24.222     140.189     168.113
  H       31.816     143.212     172.863
  H       26.663     139.373     172.353
  H       30.444     139.152     171.631
  H       28.679     137.459     173.076
  H       26.970     137.573     171.368
  H       29.264     137.186     169.346
  H       27.843     138.386     167.790
  H       28.053     145.016     174.553
  H       26.770     143.833     174.319
  H       26.943     136.991     168.424
  P       26.599     134.910     171.520
  C       28.272     133.808     173.133
  O       27.020     134.470     173.006
  O       26.095     133.798     170.665
  O       25.478     136.021     171.772
  H       24.593     135.667     171.561
  H       28.444     133.565     174.161
  H       29.052     134.451     172.783
  H       28.261     132.910     172.551

 6  7  8  9  10  11  12  13  14  15  25  28  32  33  34  35 0
 6-311+G(2d,p)
 ****
 36  39  40 0
 6-311+G(2d,p)
 ****
 1  2  3  4  5  16  17  18  19  20  21  22  23  24 0
 3-21G
 ****
 26  27  29  30  31  37  38  41  42  43  44  45  46  47 0
 3-21G
 ****
 48 0
 3-21G
 ****


