%nproc=1
%NoSave
%Mem=1900MB
#P OB98/GEN NMR

erre ene a

0 1
  C      406.185      48.205    -447.775
  O      405.721      49.543    -447.631
  P      404.399      49.964    -448.443
  C      405.139      52.449    -448.565
  O      404.166      51.516    -448.112
  C      404.477      53.775    -448.931
  O      403.648      53.613    -450.101
  C      403.563      54.344    -447.855
  O      404.282      55.040    -446.850
  C      402.725      55.312    -448.675
  O      403.467      56.526    -448.906
  C      402.541      54.546    -449.988
  N      397.773      54.577    -451.835
  C      398.765      55.493    -451.888
  N      400.002      55.416    -451.359
  C      400.162      54.261    -450.695
  C      399.231      53.249    -450.525
  C      397.983      53.430    -451.142
  N      396.986      52.486    -451.116
  N      399.761      52.220    -449.780
  C      400.991      52.593    -449.505
  N      401.287      53.816    -450.046
  O      403.231      49.231    -447.628
  O      404.398      49.589    -449.885
  H      403.539      56.980    -448.043
  H      402.453      49.102    -448.202
  H      398.535      56.407    -452.430
  H      401.706      52.014    -448.934
  H      402.582      55.202    -450.864
  H      401.792      55.597    -448.174
  H      402.917      53.564    -447.432
  H      405.273      54.492    -449.177
  H      405.639      52.042    -449.451
  H      396.198      52.611    -451.734
  H      397.218      51.556    -450.774
  H      405.883      52.598    -447.778
  P      404.226      54.428    -445.367
  C      404.912      56.624    -444.157
  O      405.263      55.300    -444.512
  O      404.954      53.015    -445.529
  O      402.849      54.300    -444.811
  H      404.647      52.391    -444.842
  H      405.559      56.956    -443.340
  H      403.871      56.681    -443.822
  H      405.058      57.290    -445.016
  H      407.065      48.067    -447.183
  H      406.413      48.015    -448.803
  H      405.425      47.527    -447.447

 3  4  5  6  7  8  9  10  11  12  22  25  29  30  31  32 0
 6-311+G(2d,p)
 ****
 33  36  37 0
 6-311+G(2d,p)
 ****
 1  2  13  14  15  16  17  18  19  20  21  23  24  26 0
 3-21G
 ****
 27  28  34  35  38  39  40  41  42  43  44  45  46  47  48 0
 3-21G
 ****


