%nproc=1
%NoSave
%Mem=1900MB
#P OB98/GEN NMR

erre ene a

0 1
  C     1034.033      62.115    -225.132
  O     1035.034      61.748    -224.195
  P     1035.640      60.261    -224.164
  C     1034.329      58.059    -223.993
  O     1034.510      59.365    -223.465
  C     1032.904      57.582    -223.732
  O     1031.998      58.415    -224.488
  C     1032.590      56.148    -224.167
  O     1032.944      55.151    -223.225
  C     1031.074      56.214    -224.285
  O     1030.481      56.126    -222.973
  C     1030.851      57.612    -224.871
  N     1027.585      57.856    -228.799
  C     1027.400      57.929    -227.464
  N     1028.326      57.844    -226.486
  C     1029.551      57.691    -227.002
  C     1029.893      57.598    -228.332
  C     1028.847      57.692    -229.268
  N     1029.045      57.630    -230.628
  N     1031.258      57.428    -228.477
  C     1031.724      57.433    -227.244
  N     1030.733      57.594    -226.312
  O     1037.008      60.159    -223.573
  O     1035.589      59.782    -225.691
  H     1030.709      55.241    -222.625
  H     1036.168      59.008    -225.817
  H     1026.371      58.090    -227.140
  H     1032.767      57.315    -226.978
  H     1029.961      58.104    -224.464
  H     1030.652      55.399    -224.882
  H     1033.020      55.927    -225.158
  H     1032.676      57.720    -222.663
  H     1035.033      57.388    -223.475
  H     1028.246      57.831    -231.219
  H     1029.990      57.668    -230.979
  H     1034.562      58.052    -225.057
  P     1032.934      53.624    -223.732
  C     1031.012      52.259    -224.866
  O     1031.393      53.250    -223.938
  O     1033.714      52.680    -222.880
  O     1033.486      53.747    -225.232
  H     1032.901      54.210    -225.846
  H     1029.948      52.036    -224.735
  H     1031.575      51.336    -224.701
  H     1031.183      52.604    -225.882
  H     1033.767      63.141    -224.987
  H     1033.169      61.500    -224.990
  H     1034.408      61.981    -226.125

 3  4  5  6  7  8  9  10  11  12  22  25  29  30  31  32 0
 6-311+G(2d,p)
 ****
 33  36  37 0
 6-311+G(2d,p)
 ****
 1  2  13  14  15  16  17  18  19  20  21  23  24  26 0
 3-21G
 ****
 27  28  34  35  38  39  40  41  42  43  44  45  46  47  48 0
 3-21G
 ****


