%nproc=1
%NoSave
%Mem=1900MB
#P OB98/GEN NMR

erre ene a

0 1
  C      -57.777      52.099     -58.678
  O      -57.546      52.682     -57.408
  H      -56.878      52.221     -59.289
  H      -58.609      52.593     -59.188
  H      -57.989      51.033     -58.572
  P      -58.773      52.770     -56.382
  C      -57.124      51.829     -54.625
  O      -58.422      51.744     -55.203
  C      -56.759      50.504     -53.962
  O      -56.785      49.437     -54.931
  C      -55.357      50.495     -53.372
  O      -55.315      51.217     -52.158
  C      -55.104      49.005     -53.257
  O      -55.738      48.457     -52.095
  C      -55.770      48.479     -54.550
  N      -54.815      48.269     -55.632
  C      -54.150      47.038     -55.633
  O      -54.385      46.202     -54.763
  N      -53.218      46.800     -56.613
  C      -52.984      47.697     -57.518
  N      -52.049      47.398     -58.459
  C      -53.672      49.001     -57.560
  C      -54.563      49.220     -56.594
  O      -60.147      52.604     -56.955
  O      -58.581      54.200     -55.687
  H      -55.357      48.935     -51.333
  H      -59.052      54.889     -56.190
  H      -53.449      49.717     -58.336
  H      -55.116      50.152     -56.553
  H      -56.286      47.530     -54.359
  H      -54.040      48.784     -53.190
  H      -54.642      50.906     -54.092
  H      -57.512      50.282     -53.196
  H      -51.594      46.495     -58.385
  H      -57.154      52.629     -53.879
  H      -51.849      47.979     -59.257
  H      -56.379      52.090     -55.384
  P      -54.774      52.726     -52.123
  C      -56.634      53.497     -50.512
  O      -56.063      53.633     -51.810
  O      -53.970      53.142     -53.309
  O      -53.955      52.785     -50.748
  H      -53.093      52.309     -50.821
  H      -57.480      54.147     -50.424
  H      -55.906      53.758     -49.773
  H      -56.946      52.484     -50.364

 6  7  8  9  10  11  12  13  14  15  16  26  30  31  32  33  35 0
 6-311+G(2d,p)
 ****
 37  38 0
 6-311+G(2d,p)
 ****
 1  2  3  4  5  17  18  19  20  21  22  23  24  25 0
 3-21G
 ****
 27  28  29  34  36  39  40  41  42  43  44  45  46 0
 3-21G
 ****


