%nproc=1
%NoSave
%Mem=1900MB
#P OB98/GEN NMR

erre ene a

0 1
  C      -29.301      81.603    -164.629
  O      -27.972      82.071    -164.759
  H      -29.985      82.448    -164.747
  H      -29.453      81.163    -163.638
  H      -29.516      80.864    -165.406
  P      -26.805      80.983    -164.582
  C      -24.390      80.891    -165.509
  O      -25.711      81.385    -165.684
  C      -23.543      81.179    -166.747
  O      -24.075      80.481    -167.888
  C      -23.480      82.651    -167.139
  O      -22.491      83.326    -166.377
  C      -23.081      82.545    -168.601
  O      -21.658      82.334    -168.699
  C      -23.830      81.285    -169.069
  N      -26.086      82.769    -173.435
  C      -24.797      82.810    -173.036
  N      -24.277      82.450    -171.841
  C      -25.236      81.998    -171.018
  C      -26.593      81.904    -171.291
  C      -27.017      82.307    -172.567
  N      -28.333      82.267    -172.973
  N      -27.279      81.398    -170.203
  C      -26.340      81.137    -169.314
  N      -25.094      81.519    -169.742
  O      -27.245      79.558    -164.579
  O      -26.126      81.485    -163.220
  H      -21.229      83.054    -168.198
  H      -26.068      82.457    -163.206
  H      -24.088      83.185    -173.769
  H      -26.508      80.659    -168.355
  H      -23.218      80.680    -169.755
  H      -23.308      83.451    -169.168
  H      -24.462      83.134    -167.069
  H      -22.534      80.783    -166.563
  H      -24.411      79.812    -165.316
  H      -28.567      82.753    -173.824
  H      -29.032      82.046    -172.281
  H      -23.963      81.390    -164.632
  P      -22.298      84.914    -166.491
  C      -21.115      86.701    -165.068
  O      -21.441      85.321    -165.197
  O      -23.561      85.678    -166.695
  O      -21.255      85.104    -167.688
  H      -21.278      86.027    -168.007
  H      -20.546      86.851    -164.174
  H      -22.015      87.277    -165.019
  H      -20.538      87.012    -165.914

 6  7  8  9  10  11  12  13  14  15  25  28  32  33  34  35 0
 6-311+G(2d,p)
 ****
 36  39  40 0
 6-311+G(2d,p)
 ****
 1  2  3  4  5  16  17  18  19  20  21  22  23  24 0
 3-21G
 ****
 26  27  29  30  31  37  38  41  42  43  44  45  46  47 0
 3-21G
 ****
 48 0
 3-21G
 ****


