%nproc=1
%NoSave
%Mem=1900MB
#P OB98/GEN NMR

erre ene a

0 1
  C      688.664    -144.412    -166.219
  O      687.260    -144.243    -166.203
  H      688.927    -145.071    -167.051
  H      689.006    -144.867    -165.285
  H      689.153    -143.445    -166.364
  P      686.660    -143.333    -165.026
  C      687.014    -140.848    -164.435
  O      687.009    -141.828    -165.468
  C      687.419    -139.487    -164.992
  O      688.767    -139.585    -165.523
  C      686.509    -139.000    -166.127
  O      686.328    -137.590    -166.012
  C      687.309    -139.304    -167.383
  O      686.952    -138.461    -168.471
  C      688.744    -139.131    -166.889
  N      690.420    -139.935    -171.640
  C      689.571    -139.019    -171.120
  N      689.192    -138.862    -169.837
  C      689.821    -139.751    -169.049
  C      690.702    -140.745    -169.429
  C      690.997    -140.824    -170.804
  N      691.836    -141.774    -171.342
  N      691.102    -141.488    -168.333
  C      690.479    -140.938    -167.304
  N      689.682    -139.900    -167.691
  O      687.078    -143.705    -163.642
  O      685.086    -143.422    -165.314
  H      687.406    -138.791    -169.283
  H      684.894    -143.327    -166.264
  H      689.138    -138.320    -171.835
  H      690.558    -141.266    -166.278
  H      689.074    -138.084    -166.918
  H      687.129    -140.342    -167.691
  H      685.542    -139.498    -166.131
  H      687.454    -138.759    -164.173
  H      687.717    -141.140    -163.645
  H      692.005    -141.753    -172.335
  H      692.298    -142.437    -170.729
  H      686.008    -140.802    -164.006
  P      685.220    -137.040    -164.981
  C      685.160    -135.843    -162.697
  O      685.969    -136.488    -163.679
  O      684.071    -137.955    -164.721
  O      684.732    -135.696    -165.692
  H      683.774    -135.591    -165.551
  H      685.775    -135.522    -161.883
  H      684.421    -136.528    -162.337
  H      684.677    -134.995    -163.134

 6  7  8  9  10  11  12  13  14  15  25  28  32  33  34  35 0
 6-311+G(2d,p)
 ****
 36  39  40 0
 6-311+G(2d,p)
 ****
 1  2  3  4  5  16  17  18  19  20  21  22  23  24 0
 3-21G
 ****
 26  27  29  30  31  37  38  41  42  43  44  45  46  47 0
 3-21G
 ****
 48 0
 3-21G
 ****


