%nproc=1
%NoSave
%Mem=1900MB
#P OB98/GEN NMR

erre ene a

0 1
  C      249.135    -108.193    -142.000
  O      248.727    -107.842    -140.695
  H      249.980    -108.883    -141.928
  H      249.449    -107.310    -142.564
  H      248.318    -108.696    -142.526
  P      247.670    -106.642    -140.531
  C      247.768    -104.072    -140.772
  O      248.497    -105.298    -140.838
  C      248.715    -102.882    -140.591
  O      249.299    -102.909    -139.271
  C      249.897    -102.887    -141.548
  O      249.550    -102.639    -142.894
  C      250.889    -101.972    -140.849
  O      250.694    -100.590    -141.139
  C      250.574    -102.241    -139.356
  N      251.633    -103.002    -138.701
  C      252.517    -102.264    -137.925
  O      252.453    -101.040    -137.797
  N      253.521    -102.975    -137.324
  C      253.746    -104.311    -137.468
  O      254.691    -104.885    -136.934
  C      252.792    -105.037    -138.319
  C      251.791    -104.360    -138.891
  O      246.920    -106.607    -139.231
  O      246.728    -106.789    -141.815
  H      251.470    -100.111    -140.790
  H      245.886    -106.284    -141.698
  H      254.166    -102.455    -136.749
  H      252.941    -106.099    -138.457
  H      251.075    -104.872    -139.527
  H      250.462    -101.292    -138.815
  H      251.920    -102.213    -141.123
  H      250.341    -103.890    -141.534
  H      248.131    -101.959    -140.685
  H      247.095    -104.131    -139.910
  H      247.170    -103.950    -141.681
  P      250.279    -103.337    -144.132
  C      252.646    -103.316    -145.208
  O      251.798    -102.811    -144.179
  O      249.509    -103.414    -145.410
  O      250.458    -104.844    -143.584
  H      250.375    -105.446    -144.349
  H      253.619    -102.880    -145.114
  H      252.234    -103.067    -146.164
  H      252.721    -104.380    -145.118

 6  7  8  9  10  11  12  13  14  15  16  26  31  32  33  34  35 0
 6-311+G(2d,p)
 ****
 36  37 0
 6-311+G(2d,p)
 ****
 1  2  3  4  5  17  18  19  20  21  22  23  24  25 0
 3-21G
 ****
 27  28  29  30  38  39  40  41  42  43  44  45 0
 3-21G
 ****


