%nproc=1
%NoSave
%Mem=1900MB
#P OB98/GEN NMR

erre ene a

0 1
  C      111.459     331.550     164.638
  O      110.866     330.371     164.073
  P      109.691     330.447     162.980
  C      107.186     331.053     162.940
  O      108.289     330.642     163.743
  C      106.013     330.068     163.038
  O      106.357     328.805     162.431
  C      105.577     329.742     164.465
  O      104.779     330.790     164.990
  C      104.846     328.419     164.257
  O      103.510     328.649     163.784
  C      105.698     327.757     163.165
  N      106.968     322.813     163.503
  C      105.952     323.444     162.875
  N      105.674     324.764     162.835
  C      106.603     325.463     163.520
  C      107.694     324.955     164.215
  C      107.864     323.561     164.195
  N      108.892     322.919     164.845
  N      108.405     325.973     164.811
  C      107.767     327.076     164.471
  N      106.674     326.817     163.689
  O      109.696     329.324     161.993
  O      109.912     331.852     162.244
  H      102.965     328.889     164.554
  H      109.568     331.800     161.331
  H      105.262     322.800     162.336
  H      108.059     328.081     164.761
  H      105.074     327.214     162.444
  H      104.772     327.831     165.177
  H      106.456     329.581     165.099
  H      105.175     330.487     162.470
  H      107.521     331.123     161.898
  H      108.924     321.913     164.809
  H      109.536     323.467     165.400
  H      106.864     332.048     163.275
  P      105.461     331.972     165.833
  C      105.956     332.411     168.313
  O      105.656     331.434     167.331
  O      104.806     333.307     165.717
  O      106.965     332.016     165.278
  H      107.309     332.923     165.351
  H      107.020     332.661     168.268
  H      105.735     331.992     169.300
  H      105.353     333.309     168.164
  H      112.216     331.267     165.340
  H      110.706     332.124     165.137
  H      111.897     332.138     163.858

 3  4  5  6  7  8  9  10  11  12  22  25  29  30  31  32 0
 6-311+G(2d,p)
 ****
 33  36  37 0
 6-311+G(2d,p)
 ****
 1  2  13  14  15  16  17  18  19  20  21  23  24  26 0
 3-21G
 ****
 27  28  34  35  38  39  40  41  42  43  44  45  46  47  48 0
 3-21G
 ****


