%nproc=1
%NoSave
%Mem=1900MB
#P OB98/GEN NMR

erre ene a

0 1
  C      -65.396      28.222      97.995
  O      -66.555      29.030      97.980
  H      -64.569      28.802      98.415
  H      -65.133      27.922      96.977
  H      -65.557      27.336      98.615
  P      -67.902      28.348      97.436
  C      -67.642      29.662      95.206
  O      -67.815      28.397      95.834
  C      -67.055      29.470      93.810
  O      -65.974      28.513      93.871
  C      -68.041      28.912      92.789
  O      -68.908      29.913      92.286
  C      -67.091      28.348      91.739
  O      -66.642      29.366      90.835
  C      -65.915      27.848      92.589
  N      -64.071      23.418      90.868
  C      -63.805      24.700      90.531
  N      -64.329      25.830      91.054
  C      -65.205      25.535      92.028
  C      -65.583      24.280      92.474
  C      -64.970      23.181      91.851
  N      -65.267      21.876      92.168
  N      -66.545      24.384      93.460
  C      -66.738      25.679      93.613
  N      -65.947      26.411      92.772
  O      -69.022      29.439      97.788
  O      -68.219      27.011      98.018
  H      -66.313      30.104      91.385
  H      -69.436      29.217      98.643
  H      -63.079      24.836      89.733
  H      -67.439      26.130      94.304
  H      -64.945      28.097      92.141
  H      -67.573      27.574      91.142
  H      -68.614      28.085      93.227
  H      -66.643      30.429      93.469
  H      -66.956      30.273      95.805
  H      -68.613      30.166      95.151
  H      -64.805      21.136      91.662
  H      -66.013      21.688      92.824
  P      -70.425      29.517      91.961
  C      -69.827      29.213      89.448
  O      -70.425      28.654      90.609
  O      -71.082      30.909      91.524
  O      -71.161      28.884      93.095
  H      -71.591      31.293      92.262
  H      -69.907      28.520      88.637
  H      -68.795      29.417      89.642
  H      -70.328      30.123      89.191

 6  7  8  9  10  11  12  13  14  15  25  28  32  33  34  35 0
 6-311+G(2d,p)
 ****
 36  37  40 0
 6-311+G(2d,p)
 ****
 1  2  3  4  5  16  17  18  19  20  21  22  23  24 0
 3-21G
 ****
 26  27  29  30  31  38  39 41  42  43  44  45  46  47  48 0
 3-21G
 ****


