%nproc=1
%NoSave
%Mem=1900MB
#P OB98/GEN NMR

erre ene a

0 1
  C     -940.398     456.298     157.166
  O     -941.424     455.339     157.386
  H     -940.293     456.903     158.073
  H     -940.670     456.953     156.335
  H     -939.446     455.804     156.960
  P     -941.681     454.222     156.266
  C     -943.347     455.883     155.186
  O     -942.272     454.971     154.980
  C     -944.329     455.809     154.028
  O     -943.621     455.707     152.777
  C     -945.251     454.591     154.066
  O     -946.277     454.760     155.032
  C     -945.724     454.521     152.631
  O     -946.792     455.460     152.400
  C     -944.444     454.943     151.860
  N     -943.714     453.790     151.321
  C     -943.343     453.869     149.981
  O     -943.637     454.808     149.257
  N     -942.657     452.791     149.493
  C     -942.388     451.619     150.162
  O     -941.846     450.658     149.659
  C     -942.816     451.593     151.573
  C     -943.442     452.669     152.079
  O     -942.464     453.031     156.711
  O     -940.206     453.809     155.792
  H     -947.528     455.183     152.980
  H     -939.973     452.940     156.175
  H     -942.396     452.816     148.523
  H     -942.620     450.700     152.148
  H     -943.781     452.657     153.111
  H     -944.702     455.610     151.037
  H     -946.102     453.532     152.368
  H     -944.658     453.684     154.291
  H     -944.916     456.734     154.011
  H     -942.940     456.899     155.258
  H     -943.836     455.632     156.136
  P     -946.556     453.617     156.117
  C     -948.258     452.172     154.817
  O     -946.921     452.274     155.316
  O     -947.510     453.980     157.210
  O     -945.107     453.288     156.715
  H     -945.100     453.472     157.669
  H     -948.378     451.240     154.306
  H     -948.448     452.978     154.139
  H     -948.948     452.222     155.633

 6  7  8  9  10  11  12  13  14  15  16  26  31  32  33  34  35 0
 6-311+G(2d,p)
 ****
 36  37 0
 6-311+G(2d,p)
 ****
 1  2  3  4  5  17  18  19  20  21  22  23  24  25 0
 3-21G
 ****
 27  28  29  30  38  39  40  41  42  43  44  45 0
 3-21G
 ****


