%nproc=1
%NoSave
%Mem=1900MB
#P OB98/GEN NMR

erre ene a

0 1
  C     -270.714     308.569     347.755
  O     -270.271     309.663     346.973
  H     -270.009     308.414     348.578
  H     -270.752     307.660     347.148
  H     -271.705     308.778     348.170
  P     -271.117     309.981     345.643
  C     -268.952     309.896     344.183
  O     -270.228     309.332     344.470
  C     -268.265     309.094     343.083
  O     -267.872     307.793     343.570
  C     -269.142     308.818     341.862
  O     -269.266     309.933     340.992
  C     -268.341     307.693     341.218
  O     -267.173     308.235     340.581
  C     -267.974     306.854     342.464
  N     -268.959     305.805     342.761
  C     -269.088     304.777     341.821
  O     -268.410     304.773     340.791
  N     -270.017     303.794     342.041
  C     -270.734     303.810     343.120
  N     -271.650     302.811     343.282
  C     -270.626     304.867     344.151
  C     -269.727     305.819     343.906
  O     -270.890     311.551     345.427
  O     -272.545     309.557     345.658
  H     -267.479     308.963     340.012
  H     -271.247     311.825     344.546
  H     -271.254     304.850     345.026
  H     -269.587     306.627     344.617
  H     -266.990     306.387     342.341
  H     -268.901     307.154     340.456
  H     -270.125     308.435     342.151
  H     -267.348     309.630     342.802
  H     -271.746     302.132     342.538
  H     -268.352     309.869     345.098
  H     -272.354     302.820     344.008
  H     -269.066     310.934     343.859
  P     -270.198     309.758     339.702
  C     -268.233     310.395     338.111
  O     -269.230     309.439     338.466
  O     -270.702     311.250     339.406
  O     -271.347     308.812     339.877
  H     -271.610     311.248     339.041
  H     -267.675     310.034     337.272
  H     -267.573     310.547     338.940
  H     -268.703     311.322     337.855

 6  7  8  9  10  11  12  13  14  15  16  26  30  31  32  33  35 0
 6-311+G(2d,p)
 ****
 37  38 0
 6-311+G(2d,p)
 ****
 1  2  3  4  5  17  18  19  20  21  22  23  24  25 0
 3-21G
 ****
 27  28  29  34  36  39  40  41  42  43  44  45  46 0
 3-21G
 ****


