%nproc=1
%NoSave
%Mem=1900MB
#P OB98/GEN NMR

erre ene a

0 1
  C     -193.184      -0.506    -580.090
  O     -192.498       0.671    -580.465
  H     -192.550      -1.378    -580.272
  H     -193.418      -0.453    -579.024
  H     -194.118      -0.603    -580.650
  P     -192.215       0.878    -582.030
  C     -190.783      -0.377    -583.805
  O     -191.243      -0.326    -582.460
  C     -190.566      -1.820    -584.245
  O     -189.713      -2.481    -583.266
  C     -191.862      -2.626    -584.355
  O     -191.770      -3.500    -585.490
  C     -191.882      -3.445    -583.077
  O     -192.651      -4.639    -583.207
  C     -190.392      -3.684    -582.846
  N     -188.713      -7.242    -579.590
  C     -188.806      -7.218    -580.934
  N     -189.258      -6.228    -581.731
  C     -189.599      -5.155    -580.994
  C     -189.563      -5.027    -579.614
  C     -189.108      -6.143    -578.895
  N     -189.047      -6.188    -577.519
  N     -190.031      -3.778    -579.233
  C     -190.341      -3.172    -580.362
  N     -190.099      -3.961    -581.447
  O     -191.250       2.160    -582.035
  O     -193.420       1.081    -582.888
  H     -192.491      -5.190    -582.416
  H     -191.786       2.971    -581.934
  H     -188.472      -8.121    -581.439
  H     -190.745      -2.172    -580.435
  H     -189.998      -4.525    -583.433
  H     -192.312      -2.849    -582.260
  H     -192.748      -1.997    -584.454
  H     -190.015      -1.820    -585.192
  H     -189.835       0.183    -583.880
  H     -188.760      -7.049    -577.082
  H     -189.392      -5.402    -576.987
  H     -191.527       0.103    -584.458
  P     -192.547      -3.040    -586.821
  C     -194.788      -3.550    -587.993
  O     -193.941      -3.826    -586.893
  O     -191.670      -3.690    -587.997
  O     -192.637      -1.555    -586.968
  H     -191.463      -3.018    -588.676
  H     -195.677      -4.140    -587.915
  H     -194.280      -3.790    -588.904
  H     -195.047      -2.512    -587.992

 6  7  8  9  10  11  12  13  14  15  25  28  32  33  34  35 0
 6-311+G(2d,p)
 ****
 36  39  40 0
 6-311+G(2d,p)
 ****
 1  2  3  4  5  16  17  18  19  20  21  22  23  24 0
 3-21G
 ****
 26  27  29  30  31  37  38  41  42  43  44  45  46  47 0
 3-21G
 ****
 48 0
 3-21G
 ****


