%nproc=1
%NoSave
%Mem=1900MB
#P OB98/GEN NMR

erre ene a

0 1
  C     -290.436    -473.382     100.872
  O     -291.311    -473.899     101.880
  P     -292.567    -474.816     101.480
  C     -294.314    -473.554     102.855
  O     -293.635    -474.791     102.685
  C     -294.537    -473.178     104.331
  O     -295.097    -474.284     105.070
  C     -293.267    -472.735     105.077
  O     -293.687    -471.751     106.021
  C     -292.844    -474.018     105.776
  O     -291.949    -473.780     106.859
  C     -294.210    -474.604     106.158
  N     -294.147    -476.038     106.413
  C     -294.490    -476.477     107.690
  O     -294.769    -475.661     108.567
  N     -294.453    -477.822     107.955
  C     -294.022    -478.647     107.060
  N     -293.992    -479.964     107.394
  C     -293.571    -478.220     105.716
  C     -293.669    -476.918     105.465
  O     -292.213    -476.182     100.992
  O     -293.300    -473.977     100.326
  H     -291.229    -473.200     106.536
  H     -293.743    -474.593      99.714
  H     -293.194    -478.942     105.005
  H     -293.367    -476.507     104.508
  H     -294.602    -474.113     107.062
  H     -292.337    -474.680     105.060
  H     -292.491    -472.340     104.417
  H     -295.276    -472.368     104.355
  H     -294.280    -480.216     108.331
  H     -295.291    -473.622     102.361
  H     -293.572    -480.680     106.810
  H     -293.753    -472.760     102.353
  P     -293.984    -470.237     105.601
  C     -292.420    -469.198     107.348
  O     -293.761    -469.341     106.907
  O     -295.287    -470.018     104.912
  O     -292.747    -469.826     104.655
  H     -292.991    -469.034     104.146
  H     -292.373    -468.401     108.102
  H     -291.763    -468.934     106.511
  H     -292.076    -470.139     107.795
  H     -289.666    -472.799     101.333
  H     -290.993    -472.766     100.197
  H     -289.995    -474.194     100.332

 3  4  5  6  7  8  9  10  11  12  13  23  27  28  29  30  32 0
 6-311+G(2d,p)
 ****
 34  35 0
 6-311+G(2d,p)
 ****
 1  2  14  15  16  17  18  19  20  21  22  24  25  26 0
 3-21G
 ****
 31  33  36  37  38  39  40  41  42  43  44  45  46 0
 3-21G
 ****


