%nproc=1
%NoSave
%Mem=1900MB
#P OB98/GEN NMR

erre ene a

0 1
  C      357.758     445.826    -287.057
  O      356.881     444.948    -286.376
  H      358.209     445.286    -287.896
  H      358.553     446.155    -286.383
  H      357.210     446.689    -287.441
  P      355.978     445.588    -285.213
  C      355.428     443.623    -283.563
  O      355.048     444.397    -284.685
  C      354.577     442.354    -283.459
  O      353.179     442.742    -283.365
  C      354.717     441.421    -284.663
  O      354.629     440.070    -284.199
  C      353.498     441.746    -285.507
  O      353.147     440.672    -286.380
  C      352.460     442.070    -284.422
  N      351.364     442.888    -284.924
  C      350.187     442.215    -285.285
  O      350.118     440.990    -285.179
  N      349.135     442.934    -285.794
  C      349.263     444.210    -285.987
  N      348.195     444.864    -286.520
  C      350.504     444.959    -285.669
  C      351.488     444.242    -285.145
  O      354.976     446.512    -286.051
  O      356.750     446.311    -284.159
  H      353.816     440.623    -287.096
  H      354.617     446.075    -286.841
  H      350.563     446.020    -285.860
  H      352.434     444.709    -284.867
  H      352.037     441.143    -284.006
  H      353.692     442.629    -286.126
  H      355.656     441.561    -285.200
  H      354.830     441.841    -282.528
  H      347.381     444.308    -286.740
  H      355.321     444.209    -282.640
  H      348.202     445.845    -286.768
  H      356.489     443.363    -283.674
  P      355.931     439.136    -284.234
  C      354.579     436.942    -284.497
  O      355.543     437.664    -283.723
  O      357.158     439.719    -283.610
  O      356.159     438.907    -285.808
  H      357.119     438.952    -285.979
  H      354.411     435.983    -284.053
  H      354.946     436.814    -285.494
  H      353.660     437.490    -284.523

 6  7  8  9  10  11  12  13  14  15  16  26  30  31  32  33  35 0
 6-311+G(2d,p)
 ****
 37  38 0
 6-311+G(2d,p)
 ****
 1  2  3  4  5  17  18  19  20  21  22  23  24  25 0
 3-21G
 ****
 27  28  29  34  36  39  40  41  42  43  44  45  46 0
 3-21G
 ****


