%nproc=1
%NoSave
%Mem=1900MB
#P OB98/GEN NMR

erre ene a

0 1
  C      150.651      96.963      51.580
  O      151.841      96.188      51.516
  P      153.027      96.697      50.564
  C      152.282      95.111      48.654
  O      152.554      96.448      49.050
  C      153.174      94.689      47.487
  O      152.915      93.294      47.174
  C      152.957      95.490      46.199
  O      154.222      95.577      45.533
  C      152.032      94.598      45.392
  O      152.071      94.898      44.000
  C      152.580      93.225      45.771
  N      150.114      90.511      42.209
  C      151.042      91.486      42.112
  N      151.654      92.161      43.107
  C      151.214      91.740      44.305
  C      150.247      90.782      44.558
  C      149.684      90.146      43.439
  N      148.745      89.145      43.534
  N      150.046      90.644      45.915
  C      150.874      91.503      46.472
  N      151.618      92.170      45.539
  O      154.158      95.588      50.791
  O      153.540      98.064      50.862
  H      151.750      95.811      43.875
  H      154.916      95.977      51.269
  H      151.340      91.755      41.102
  H      150.971      91.679      47.534
  H      153.494      92.976      45.217
  H      151.000      94.725      45.737
  H      152.543      96.491      46.359
  H      154.220      94.758      47.809
  H      151.238      95.044      48.338
  H      148.493      88.646      42.697
  H      148.560      88.736      44.443
  H      152.431      94.440      49.505
  P      154.554      96.951      44.778
  C      154.031      96.091      42.389
  O      153.675      96.966      43.441
  O      156.049      96.730      44.249
  O      154.449      98.164      45.644
  H      156.505      97.588      44.171
  H      153.122      95.776      41.870
  H      154.556      95.204      42.754
  H      154.676      96.623      41.684
  H      149.959      96.499      52.251
  H      150.214      97.027      50.605
  H      150.884      97.946      51.932

 3  4  5  6  7  8  9  10  11  12  22  25  29  30  31  32 0
 6-311+G(2d,p)
 ****
 33  36  37 0
 6-311+G(2d,p)
 ****
 1  2  13  14  15  16  17  18  19  20  21  23  24  26 0
 3-21G
 ****
 27  28  34  35  38  39  40  41  42  43  44  45  46  47  48 0
 3-21G
 ****


