%nproc=1
%NoSave
%Mem=1900MB
#P OB98/GEN NMR

erre ene a

0 1
  C      728.048    -899.023    -429.010
  O      727.939    -898.203    -427.852
  P      727.464    -896.683    -427.951
  C      729.678    -896.003    -429.100
  O      728.793    -895.773    -428.016
  C      730.713    -894.893    -429.202
  O      730.096    -893.653    -429.612
  C      731.416    -894.583    -427.892
  O      732.349    -895.583    -427.528
  C      732.023    -893.213    -428.196
  O      733.247    -893.353    -428.945
  C      730.911    -892.583    -429.073
  N      730.125    -891.583    -428.348
  C      730.762    -890.373    -428.085
  O      731.949    -890.223    -428.347
  N      730.031    -889.373    -427.479
  C      728.823    -889.613    -427.068
  N      728.127    -888.583    -426.526
  C      728.185    -890.943    -427.216
  C      728.876    -891.863    -427.872
  O      726.449    -896.253    -426.968
  O      726.907    -896.563    -429.463
  H      726.020    -896.143    -429.428
  H      733.475    -892.463    -429.278
  H      727.205    -891.123    -426.780
  H      728.455    -892.873    -428.028
  H      731.357    -892.093    -429.958
  H      732.254    -892.643    -427.290
  H      730.668    -894.473    -427.091
  H      731.438    -895.173    -429.986
  H      728.585    -887.703    -426.479
  H      729.089    -896.033    -430.029
  H      727.109    -888.583    -426.495
  H      730.160    -896.983    -428.962
  P      732.703    -895.713    -425.964
  C      734.354    -893.693    -425.925
  O      734.180    -895.083    -425.762
  O      732.921    -897.273    -425.765
  O      731.664    -895.173    -425.044
  H      732.581    -897.533    -424.870
  H      735.285    -893.413    -425.417
  H      733.519    -893.133    -425.463
  H      734.413    -893.463    -426.982
  H      728.380    -900.000    -428.726
  H      728.753    -898.591    -429.688
  H      727.093    -899.096    -429.487

 3  4  5  6  7  8  9  10  11  12  13  24  27  28  29  30  32 0
 6-311+G(2d,p)
 ****
 34  35 0
 6-311+G(2d,p)
 ****
 1  2  14  15  16  17  18  19  20  21  22  23  25  26 0
 3-21G
 ****
 31  33  36  37  38  39  40  41  42  43  44  45  46 0
 3-21G
 ****


