%nproc=1
%NoSave
%Mem=1900MB
#P OB98/GEN NMR

erre ene a

0 1
  C      197.517    -893.130     302.026
  O      198.019    -894.050     302.978
  H      196.501    -892.840     302.319
  H      197.478    -893.590     301.040
  H      198.133    -892.220     301.997
  P      199.558    -894.490     302.888
  C      200.139    -894.770     305.389
  O      199.845    -895.420     304.160
  C      199.885    -895.720     306.578
  O      198.454    -896.010     306.646
  C      200.614    -897.070     306.461
  O      200.885    -897.520     307.801
  C      199.529    -897.930     305.818
  O      199.833    -899.310     305.840
  C      198.317    -897.450     306.615
  N      197.015    -897.830     306.075
  C      196.295    -898.800     306.742
  O      196.679    -899.390     307.773
  N      195.090    -899.140     306.197
  C      194.531    -898.590     305.062
  O      193.428    -898.910     304.642
  C      195.338    -897.560     304.398
  C      196.527    -897.230     304.927
  O      200.533    -893.390     302.681
  O      199.580    -895.540     301.676
  H      199.935    -895.100     300.870
  H      199.097    -899.800     305.409
  H      194.543    -899.850     306.664
  H      194.940    -897.130     303.505
  H      197.149    -896.470     304.461
  H      198.379    -897.790     307.647
  H      199.445    -897.670     304.760
  H      201.541    -897.020     305.904
  H      200.150    -895.200     307.495
  H      199.488    -893.890     305.478
  H      201.177    -894.450     305.386
  P      202.334    -897.990     308.301
  C      203.236    -896.050     309.780
  O      202.610    -897.340     309.749
  O      203.428    -897.750     307.321
  O      202.175    -899.560     308.617
  H      203.056    -900.000     308.517
  H      203.360    -895.738     310.796
  H      202.622    -895.343     309.262
  H      204.193    -896.107     309.305

 6  7  8  9  10  11  12  13  14  15  16  27  31  32  33  34  35 0
 6-311+G(2d,p)
 ****
 36  37 0
 6-311+G(2d,p)
 ****
 1  2  3  4  5  17  18  19  20  21  22  23  24  25 0
 3-21G
 ****
 26  28  29  30  38  39  40  41  42  43  44  45 0
 3-21G
 ****


