%nproc=1
%NoSave
%Mem=1900MB
#P OB98/GEN NMR

erre ene a

0 1
  C      500.103      -2.256      45.911
  O      499.858      -2.773      47.210
  P      499.986      -1.841      48.509
  C      501.391      -3.495      49.891
  O      500.140      -2.826      49.770
  C      501.558      -4.046      51.316
  O      501.609      -2.922      52.251
  C      500.402      -4.965      51.749
  O      500.805      -6.249      52.243
  C      499.626      -4.102      52.734
  O      498.799      -4.837      53.621
  C      500.757      -3.275      53.359
  N      500.252      -2.095      54.074
  C      500.582      -1.977      55.419
  O      501.276      -2.780      56.037
  N      500.043      -0.902      56.070
  C      499.129      -0.025      55.571
  O      498.615       0.844      56.239
  C      498.781      -0.229      54.142
  C      499.374      -1.221      53.459
  O      498.922      -0.806      48.669
  O      501.465      -1.231      48.378
  H      499.361      -5.139      54.364
  H      502.179      -1.899      48.354
  H      500.270      -0.806      57.047
  H      498.053       0.437      53.712
  H      499.135      -1.388      52.420
  H      501.348      -3.867      54.053
  H      498.969      -3.441      52.153
  H      499.749      -5.209      50.892
  H      502.517      -4.574      51.363
  H      502.197      -2.782      49.689
  H      501.457      -4.295      49.150
  P      500.245      -7.653      51.729
  C      499.127      -8.582      53.875
  O      500.200      -8.659      52.967
  O      500.922      -8.192      50.499
  O      498.694      -7.365      51.427
  H      498.387      -7.946      50.715
  H      499.468      -8.934      54.861
  H      498.322      -9.240      53.540
  H      498.751      -7.564      53.966
  H      499.966      -3.032      45.187
  H      501.107      -1.890      45.856
  H      499.421      -1.456      45.711

 3  4  5  6  7  8  9  10  11  12  13  23  28  29  30  31  32 0
 6-311+G(2d,p)
 ****
 33  34 0
 6-311+G(2d,p)
 ****
 1  2  14  15  16  17  18  19  20  21  22  24  25  26  27 0
 3-21G
 ****
 35  36  37  38  39  40  41  42  43  44  45 0
 3-21G
 ****


