%nproc=1
%NoSave
%Mem=1900MB
#P OB98/GEN NMR

erre ene a

0 1
  C     -104.738      50.997     -85.842
  O     -105.496      52.204     -85.710
  P     -104.682      53.563     -85.460
  C     -105.959      54.404     -83.348
  O     -105.648      54.607     -84.724
  C     -107.311      55.034     -83.015
  O     -108.397      54.230     -83.515
  C     -107.562      55.158     -81.521
  O     -106.855      56.259     -80.984
  C     -109.078      55.313     -81.465
  O     -109.473      56.692     -81.535
  C     -109.555      54.538     -82.714
  N     -110.301      53.337     -82.382
  C     -111.616      53.535     -81.944
  O     -112.071      54.677     -81.838
  N     -112.371      52.438     -81.614
  C     -111.851      51.252     -81.688
  N     -112.644      50.203     -81.344
  C     -110.456      51.003     -82.119
  C     -109.746      52.080     -82.447
  O     -104.525      54.176     -86.929
  O     -103.354      53.360     -84.802
  H     -110.438      56.699     -81.371
  H     -103.686      54.661     -87.005
  H     -110.066      49.997     -82.158
  H     -108.714      51.990     -82.770
  H     -110.200      55.175     -83.333
  H     -109.485      54.917     -80.530
  H     -107.266      54.230     -81.013
  H     -107.360      56.027     -83.486
  H     -113.592      50.412     -81.051
  H     -105.179      54.839     -82.720
  H     -112.340      49.238     -81.358
  H     -105.963      53.328     -83.143
  P     -106.116      56.062     -79.580
  C     -107.296      57.955     -78.308
  O     -106.093      57.521     -78.911
  O     -104.585      55.880     -80.028
  O     -106.579      54.940     -78.714
  H     -104.036      55.653     -79.257
  H     -107.089      58.851     -77.719
  H     -107.696      57.185     -77.644
  H     -108.030      58.203     -79.080
  H     -105.403      50.174     -86.004
  H     -104.175      50.830     -84.948
  H     -104.070      51.085     -86.673

 3  4  5  6  7  8  9  10  11  12  13  21  23  27  28  29  30  32 0
 6-311+G(2d,p)
 ****
 34  35 0
 6-311+G(2d,p)
 ****
 1  2  14  15  16  17  18  19  20  22  24  25  26 0
 3-21G
 ****
 31  33  36  37  38  39  40  41  42  43  44  45  46 0
 3-21G
 ****


