%nproc=1
%NoSave
%Mem=1900MB
#P OB98/GEN NMR

erre ene a

0 1
  C      -53.842     -27.578      -3.027
  O      -55.037     -27.936      -3.687
  H      -53.139     -28.414      -3.091
  H      -54.043     -27.368      -1.974
  H      -53.394     -26.702      -3.503
  P      -56.210     -26.843      -3.705
  C      -57.317     -27.186      -6.025
  O      -57.376     -27.452      -4.631
  C      -56.397     -28.190      -6.721
  O      -56.921     -29.531      -6.516
  C      -56.270     -27.969      -8.235
  O      -54.923     -28.248      -8.630
  C      -57.185     -29.034      -8.814
  O      -56.841     -29.367     -10.155
  C      -56.977     -30.162      -7.809
  N      -59.023     -33.725     -10.712
  C      -57.912     -32.930     -10.917
  N      -57.243     -33.105     -12.077
  N      -57.496     -32.036     -10.060
  C      -58.245     -31.985      -8.933
  C      -59.369     -32.707      -8.614
  C      -59.834     -33.679      -9.582
  O      -60.823     -34.395      -9.467
  N      -59.864     -32.336      -7.389
  C      -59.039     -31.394      -6.968
  N      -58.039     -31.149      -7.870
  O      -55.607     -25.663      -4.603
  O      -56.660     -26.359      -2.368
  H      -57.331     -30.180     -10.398
  H      -55.966     -24.798      -4.327
  H      -59.307     -34.390     -11.410
  H      -59.121     -30.861      -6.030
  H      -56.034     -30.699      -7.972
  H      -58.224     -28.685      -8.802
  H      -57.486     -33.797     -12.769
  H      -56.546     -26.962      -8.555
  H      -56.417     -32.541     -12.242
  H      -55.414     -28.159      -6.235
  H      -56.933     -26.173      -6.179
  H      -58.325     -27.256      -6.446
  P      -54.060     -27.038      -9.232
  C      -51.641     -27.957      -9.036
  O      -52.726     -27.636      -9.893
  O      -53.523     -26.294      -7.919
  O      -54.845     -26.108     -10.097
  H      -53.987     -25.444      -7.809
  H      -50.829     -28.342      -9.617
  H      -51.953     -28.695      -8.326
  H      -51.323     -27.076      -8.518

 6  7  8  9  10  11  12  13  14  15  26  29  33  34 0
 6-311+G(2d,p)
 ****
 36  38  39  40  41 0
 6-311+G(2d,p)
 ****
 1  2  3  4  5  16  17  18  19  20  21  22  23  24  25 0
 3-21G
 ****
 27  28  30  31  32  35  37  42  43  44  45  46  47 0
 3-21G
 ****
 48  49 0
 3-21G
 ****


