%nproc=1
%NoSave
%Mem=1900MB
#P OB98/GEN NMR

erre ene a

0 1
  C      -91.403     -10.600     -36.571
  O      -91.820      -9.432     -37.245
  H      -92.256     -11.020     -36.033
  H      -90.624     -10.347     -35.849
  H      -91.029     -11.346     -37.278
  P      -90.822      -8.823     -38.341
  C      -92.832      -7.937     -39.715
  O      -91.603      -7.627     -39.079
  C      -93.580      -6.654     -40.081
  O      -93.882      -5.928     -38.861
  C      -92.786      -5.715     -40.998
  O      -93.685      -5.119     -41.938
  C      -92.262      -4.653     -40.048
  O      -91.997      -3.414     -40.702
  C      -93.386      -4.585     -39.021
  N      -92.884      -0.369     -36.306
  C      -93.494      -0.577     -37.528
  N      -94.049       0.503     -38.121
  N      -93.555      -1.742     -38.118
  C      -92.991      -2.738     -37.393
  C      -92.353      -2.660     -36.176
  C      -92.267      -1.359     -35.549
  O      -91.721      -1.108     -34.479
  N      -91.882      -3.888     -35.783
  C      -92.235      -4.704     -36.759
  N      -92.915      -4.055     -37.753
  O      -90.759      -9.972     -39.454
  O      -89.459      -8.473     -37.842
  H      -91.593      -3.621     -41.573
  H      -89.855     -10.335     -39.504
  H      -92.854       0.551     -35.904
  H      -92.017      -5.762     -36.800
  H      -94.216      -3.949     -39.351
  H      -91.329      -5.000     -39.586
  H      -94.081       1.419     -37.702
  H      -91.981      -6.219     -41.535
  H      -94.534       0.368     -39.000
  H      -94.540      -6.927     -40.535
  H      -93.446      -8.533     -39.032
  H      -92.635      -8.522     -40.619
  P      -93.501      -5.527     -43.480
  C      -96.034      -5.372     -44.000
  O      -94.727      -4.911     -44.315
  O      -93.797      -7.100     -43.478
  O      -92.144      -5.227     -44.026
  H      -92.967      -7.594     -43.611
  H      -96.747      -4.881     -44.629
  H      -96.252      -5.153     -42.976
  H      -96.087      -6.429     -44.158

 6  7  8  9  10  11  12  13  14  15  26  29  33  34 0
 6-311+G(2d,p)
 ****
 36  38  39  40  41 0
 6-311+G(2d,p)
 ****
 1  2  3  4  5  16  17  18  19  20  21  22  23  24  25 0
 3-21G
 ****
 27  28  30  31  32  35  37  42  43  44  45  46  47 0
 3-21G
 ****
 48  49 0
 3-21G
 ****


