%nproc=1
%NoSave
%Mem=1900MB
#P OB98/GEN NMR

erre ene a

0 1
  C     -249.449    -573.860    -255.948
  O     -250.473    -574.793    -256.246
  H     -249.713    -572.895    -256.393
  H     -248.496    -574.197    -256.376
  H     -249.353    -573.738    -254.865
  P     -250.237    -576.296    -255.727
  C     -249.656    -577.254    -258.068
  O     -249.197    -576.966    -256.753
  C     -248.472    -577.516    -259.001
  O     -248.930    -577.690    -260.365
  C     -247.431    -576.405    -259.024
  O     -246.517    -576.542    -257.946
  C     -246.775    -576.638    -260.377
  O     -245.819    -577.719    -260.311
  C     -247.978    -577.033    -261.251
  N     -251.291    -575.852    -264.887
  C     -250.804    -577.084    -264.481
  N     -251.249    -578.164    -265.166
  N     -249.953    -577.247    -263.506
  C     -249.552    -576.081    -262.943
  C     -249.954    -574.800    -263.253
  C     -250.938    -574.637    -264.303
  O     -251.468    -573.579    -264.644
  N     -249.331    -573.874    -262.447
  C     -248.537    -574.591    -261.676
  N     -248.631    -575.940    -261.940
  O     -251.622    -577.026    -256.074
  O     -249.900    -576.431    -254.280
  H     -246.227    -578.482    -259.868
  H     -251.831    -577.655    -255.353
  H     -251.966    -575.788    -265.621
  H     -247.882    -574.198    -260.911
  H     -247.697    -577.765    -262.019
  H     -246.226    -575.759    -260.717
  H     -251.655    -578.081    -266.081
  H     -247.909    -575.416    -259.016
  H     -250.835    -579.055    -264.921
  H     -248.017    -578.464    -258.694
  H     -250.227    -576.397    -258.436
  H     -250.305    -578.135    -258.038
  P     -245.383    -575.418    -257.768
  C     -243.341    -576.914    -258.373
  O     -244.152    -575.805    -258.730
  O     -244.820    -575.720    -256.301
  O     -245.874    -574.015    -257.884
  H     -245.143    -575.043    -255.677
  H     -242.571    -577.043    -259.105
  H     -243.944    -577.797    -258.329
  H     -242.897    -576.737    -257.416

 6  7  8  9  10  11  12  13  14  15  26  29  33  34 0
 6-311+G(2d,p)
 ****
 36  38  39  40  41 0
 6-311+G(2d,p)
 ****
 1  2  3  4  5  16  17  18  19  20  21  22  23  24  25 0
 3-21G
 ****
 27  28  30  31  32  35  37  42  43  44  45  46  47 0
 3-21G
 ****
 48  49 0
 3-21G
 ****


