%nproc=1
%NoSave
%Mem=1900MB
#P OB98/GEN NMR

erre ene a

0 1
  C      383.736    -284.025     -81.712
  O      384.489    -282.989     -81.117
  P      384.149    -281.442     -81.281
  C      385.058    -279.571     -82.866
  O      384.722    -280.942     -82.694
  C      385.875    -279.362     -84.146
  O      387.094    -280.144     -84.052
  C      385.117    -279.863     -85.391
  O      385.229    -279.013     -86.525
  C      385.626    -281.295     -85.538
  O      385.436    -281.835     -86.841
  C      387.073    -281.159     -85.075
  N      388.011    -286.098     -85.827
  C      387.586    -285.148     -86.734
  N      387.187    -285.607     -87.938
  N      387.525    -283.868     -86.460
  C      387.840    -283.569     -85.181
  C      388.279    -284.426     -84.191
  C      388.379    -285.831     -84.520
  O      388.642    -286.726     -83.713
  N      388.445    -283.779     -82.995
  C      388.076    -282.539     -83.247
  N      387.669    -282.371     -84.551
  O      384.380    -280.575     -80.085
  O      382.558    -281.484     -81.558
  H      385.790    -281.194     -87.481
  H      382.174    -280.679     -81.148
  H      387.964    -287.081     -86.068
  H      388.056    -281.735     -82.518
  H      387.723    -280.830     -85.888
  H      385.050    -281.920     -84.850
  H      387.086    -286.601     -88.125
  H      384.040    -279.892     -85.196
  H      386.647    -284.978     -88.520
  H      386.156    -278.303     -84.231
  H      385.650    -279.288     -81.990
  H      384.154    -278.952     -82.876
  P      384.475    -279.113     -87.927
  C      384.867    -280.242     -90.197
  O      385.215    -280.216     -88.829
  O      384.819    -277.748     -88.685
  O      382.993    -279.290     -87.831
  H      384.032    -277.434     -89.166
  H      385.213    -281.184     -90.634
  H      385.352    -279.412     -90.718
  H      383.781    -280.174     -90.325
  H      384.164    -284.971     -81.453
  H      383.746    -283.908     -82.776
  H      382.727    -283.981     -81.358

 3  4  5  6  7  8  9  10  11  12  23  26  30  31 0
 6-311+G(2d,p)
 ****
 33  35  36  37  38 0
 6-311+G(2d,p)
 ****
 1  2  13  14  15  16  17  18  19  20  21  22  24  25 0
 3-21G
 ****
 27  28  29  32  34  39  40  41  42  43  44  45  46  47  48  49 0
 3-21G
 ****


