%nproc=1
%NoSave
%Mem=1900MB
#P OB98/GEN NMR

erre ene a

0 1
  C      -20.210    -106.857     120.820
  O      -18.960    -106.268     120.524
  H      -20.229    -107.130     121.878
  H      -20.346    -107.761     120.222
  H      -21.025    -106.154     120.622
  P      -18.794    -105.578     119.087
  C      -19.772    -103.192     118.759
  O      -18.756    -103.993     119.343
  C      -19.230    -101.794     118.463
  O      -18.661    -101.249     119.688
  C      -18.129    -101.766     117.394
  O      -18.276    -100.566     116.627
  C      -16.856    -101.678     118.215
  O      -15.752    -101.128     117.510
  C      -17.325    -100.804     119.382
  N      -16.454    -100.913     120.551
  C      -16.615     -99.967     121.558
  O      -17.488     -99.102     121.576
  N      -15.711    -100.043     122.588
  C      -14.680    -100.928     122.692
  O      -13.891    -100.932     123.629
  C      -14.556    -101.896     121.593
  C      -15.433    -101.842     120.588
  O      -20.224    -105.810     118.410
  O      -17.673    -106.099     118.251
  H      -20.238    -106.654     117.922
  H      -15.654    -101.634     116.678
  H      -15.813     -99.365     123.325
  H      -13.743    -102.608     121.636
  H      -15.358    -102.528     119.751
  H      -17.393     -99.755     119.070
  H      -16.570    -102.676     118.566
  H      -18.130    -102.633     116.727
  H      -20.066    -101.144     118.181
  H      -20.613    -103.107     119.454
  H      -20.122    -103.669     117.838
  P      -18.916    -100.702     115.161
  C      -21.408    -101.503     115.051
  O      -20.489    -100.464     115.355
  O      -18.777    -102.273     114.909
  O      -18.244     -99.834     114.151
  H      -18.897    -102.800     115.718
  H      -22.405    -101.164     115.241
  H      -21.198    -102.355     115.663
  H      -21.313    -101.773     114.020

 6  7  8  9  10  11  12  13  14  15  16  27  31  32  33  34  35 0
 6-311+G(2d,p)
 ****
 36  37 0
 6-311+G(2d,p)
 ****
 1  2  3  4  5  17  18  19  20  21  22  23  24  25 0
 3-21G
 ****
 26  28  29  30  38  39  40  41  42  43  44  45 0
 3-21G
 ****


