%nproc=1
%NoSave
%Mem=1900MB
#P OB98/GEN NMR

erre ene a

0 1
  C     1806.850     -79.944     243.432
  O     1807.089     -81.029     244.316
  P     1806.116     -82.305     244.183
  C     1807.942     -84.177     244.390
  O     1807.030     -83.469     243.555
  C     1809.375     -83.875     243.944
  O     1809.699     -82.484     244.216
  C     1810.426     -84.681     244.671
  O     1810.485     -86.014     244.216
  C     1811.695     -83.870     244.390
  O     1812.193     -84.185     243.069
  C     1811.150     -82.419     244.419
  N     1811.472     -81.713     245.650
  C     1812.818     -81.381     245.819
  O     1813.705     -81.684     245.009
  N     1813.134     -80.724     246.978
  C     1812.257     -80.396     247.963
  O     1812.595     -79.788     248.972
  C     1810.872     -80.811     247.746
  C     1810.546     -81.445     246.636
  O     1805.162     -81.856     242.973
  O     1805.427     -82.644     245.460
  H     1805.620     -81.318     242.308
  H     1812.979     -83.606     242.947
  H     1814.091     -80.473     247.102
  H     1810.156     -80.584     248.552
  H     1809.522     -81.764     246.471
  H     1811.547     -81.852     243.568
  H     1812.505     -84.061     245.089
  H     1810.233     -84.680     245.747
  H     1809.460     -84.035     242.862
  H     1807.767     -85.253     244.301
  H     1807.770     -83.903     245.427
  P     1810.087     -87.179     245.279
  C     1808.346     -88.582     243.931
  O     1808.584     -87.643     244.945
  O     1809.931     -86.328     246.622
  O     1811.094     -88.284     245.371
  H     1809.444     -85.488     246.490
  H     1807.362     -89.015     244.084
  H     1809.066     -89.398     243.964
  H     1808.368     -88.104     242.952
  H     1807.560     -79.166     243.622
  H     1805.860     -79.569     243.587
  H     1806.950     -80.279     242.421

 3  4  5  6  7  8  9  10  11  12  13  24  28  29  30  31  32 0
 6-311+G(2d,p)
 ****
 33  34 0
 6-311+G(2d,p)
 ****
 1  2  14  15  16  17  18  19  20  21  22  23  25  26  27 0
 3-21G
 ****
 35  36  37  38  39  40  41  42  43  44  45 0
 3-21G
 ****


