%nproc=1
%NoSave
%Mem=1900MB
#P OB98/GEN NMR

erre ene a

0 1
  C      477.470     412.351     189.449
  O      477.342     412.355     190.859
  H      476.486     412.524     189.010
  H      477.847     411.379     189.115
  H      478.147     413.145     189.125
  P      478.704     412.300     191.710
  C      478.546     414.906     192.048
  O      479.314     413.786     191.645
  C      479.361     416.196     191.908
  O      479.795     416.325     190.537
  C      478.573     417.455     192.273
  O      479.469     418.382     192.901
  C      478.148     418.004     190.921
  O      477.876     419.402     190.970
  C      479.355     417.610     190.044
  N      479.017     417.553     188.626
  C      479.306     418.692     187.872
  O      479.806     419.684     188.397
  N      478.983     418.703     186.530
  C      478.370     417.693     186.011
  N      478.053     417.773     184.689
  C      477.999     416.487     186.781
  C      478.365     416.479     188.066
  O      479.659     411.449     190.743
  O      478.552     411.735     193.080
  H      478.637     419.845     191.408
  H      479.606     411.723     189.811
  H      477.478     415.666     186.303
  H      478.138     415.632     188.703
  H      480.180     418.317     190.185
  H      477.242     417.493     190.568
  H      477.726     417.257     192.929
  H      480.259     416.100     192.530
  H      478.296     418.634     184.205
  H      478.213     414.786     193.089
  H      477.526     417.072     184.191
  H      477.658     414.946     191.415
  P      479.912     418.136     194.416
  C      482.136     416.938     193.886
  O      480.859     416.851     194.501
  O      478.816     418.197     195.427
  O      480.962     419.341     194.674
  H      480.797     419.691     195.569
  H      482.659     416.014     194.019
  H      482.695     417.732     194.335
  H      482.016     417.133     192.841

 6  7  8  9  10  11  12  13  14  15  16  26  30  31  32  33  35 0
 6-311+G(2d,p)
 ****
 37  38 0
 6-311+G(2d,p)
 ****
 1  2  3  4  5  17  18  19  20  21  22  23  24  25 0
 3-21G
 ****
 27  28  29  34  36  39  40  41  42  43  44  45  46 0
 3-21G
 ****


