%nproc=1
%NoSave
%Mem=1900MB
#P OB98/GEN NMR

erre ene a

0 1
  C      373.714    -120.771     104.021
  O      373.852    -121.459     105.247
  H      374.260    -119.826     104.055
  H      374.131    -121.391     103.221
  H      372.658    -120.585     103.808
  P      373.334    -120.700     106.563
  C      375.565    -121.263     107.754
  O      374.636    -120.250     107.390
  C      376.760    -120.638     108.473
  O      377.405    -119.710     107.565
  C      376.407    -119.876     109.762
  O      377.124    -120.426     110.872
  C      376.910    -118.462     109.516
  O      377.527    -117.878     110.662
  C      377.899    -118.633     108.368
  N      380.393    -114.206     107.975
  C      380.724    -115.367     108.583
  N      380.064    -116.543     108.562
  C      378.966    -116.456     107.792
  C      378.513    -115.351     107.093
  C      379.272    -114.176     107.221
  N      378.906    -112.978     106.645
  N      377.341    -115.645     106.421
  C      377.067    -116.891     106.746
  N      378.010    -117.417     107.589
  O      372.715    -121.883     107.448
  O      372.338    -119.616     106.316
  H      377.869    -117.009     110.384
  H      371.833    -121.620     107.775
  H      381.636    -115.346     109.174
  H      376.186    -117.441     106.441
  H      378.900    -118.906     108.724
  H      376.063    -117.832     109.221
  H      375.332    -119.880     109.974
  H      377.486    -121.433     108.687
  H      375.921    -121.775     106.854
  H      379.443    -112.161     106.883
  H      378.016    -112.922     106.173
  H      375.064    -121.993     108.396
  P      376.240    -121.057     112.059
  C      376.742    -119.238     113.853
  O      375.775    -119.847     113.006
  O      377.329    -121.824     112.949
  O      375.158    -121.969     111.589
  H      376.910    -122.564     113.425
  H      376.280    -118.455     114.416
  H      377.532    -118.831     113.257
  H      377.142    -119.971     114.522

 6  7  8  9  10  11  12  13  14  15  25  28  32  33  34  35 0
 6-311+G(2d,p)
 ****
 36  39  40 0
 6-311+G(2d,p)
 ****
 1  2  3  4  5  16  17  18  19  20  21  22  23  24 0
 3-21G
 ****
 26  27  29  30  31  37  38  41  42  43  44  45  46  47  48 0
 3-21G
 ****


