%nproc=1
%NoSave
%Mem=1900MB
#P OB98/GEN NMR

erre ene a

0 1
  C     -773.466     820.347     142.653
  O     -774.417     820.016     141.646
  H     -773.493     819.574     143.421
  H     -773.703     821.311     143.113
  H     -772.465     820.382     142.220
  P     -774.774     821.144     140.553
  C     -772.645     820.391     139.302
  O     -773.373     821.500     139.828
  C     -772.294     820.613     137.824
  O     -771.612     821.878     137.646
  C     -771.331     819.567     137.262
  O     -771.866     818.268     137.153
  C     -770.827     820.274     136.006
  O     -771.727     820.133     134.905
  C     -770.784     821.764     136.473
  N     -769.415     822.221     136.712
  C     -768.666     822.512     135.589
  O     -769.077     822.364     134.426
  N     -767.381     822.935     135.820
  C     -766.796     823.052     137.034
  O     -765.635     823.439     137.180
  C     -767.624     822.706     138.193
  C     -768.891     822.312     137.992
  O     -775.516     822.346     141.068
  O     -775.564     820.333     139.424
  H     -771.971     819.197     134.847
  H     -776.048     820.952     138.813
  H     -766.832     823.160     135.012
  H     -767.190     822.783     139.187
  H     -769.523     822.040     138.824
  H     -771.239     822.407     135.711
  H     -769.851     819.886     135.681
  H     -770.460     819.501     137.935
  H     -773.218     820.649     137.259
  H     -773.267     819.496     139.396
  H     -771.728     820.254     139.893
  P     -770.990     816.954     137.273
  C     -771.245     817.036     139.881
  O     -770.380     816.853     138.756
  O     -770.074     816.648     136.133
  O     -772.131     815.801     137.313
  H     -771.771     815.031     136.850
  H     -770.681     816.937     140.785
  H     -772.018     816.297     139.860
  H     -771.683     818.011     139.839

 6  7  8  9  10  11  12  13  14  15  16  26  31  32  33  34  35 0
 6-311+G(2d,p)
 ****
 36  37 0
 6-311+G(2d,p)
 ****
 1  2  3  4  5  17  18  19  20  21  22  23  24  25 0
 3-21G
 ****
 27  28  29  30  38  39  40  41  42  43  44  45 0
 3-21G
 ****


