%nproc=1
%NoSave
%Mem=1900MB
#P OB98/GEN NMR

erre ene a

0 1
  C      350.202     -26.357      75.466
  O      350.214     -26.934      76.757
  H      349.166     -26.294      75.125
  H      350.762     -26.980      74.764
  H      350.623     -25.349      75.491
  P      351.626     -27.142      77.488
  C      352.269     -27.575      79.965
  O      351.261     -27.151      79.056
  C      351.866     -27.236      81.397
  O      352.080     -25.834      81.683
  C      350.393     -27.474      81.722
  O      350.050     -28.838      81.859
  C      350.293     -26.716      83.037
  O      350.901     -27.489      84.086
  C      351.127     -25.453      82.715
  N      350.300     -24.333      82.262
  C      350.041     -23.327      83.198
  O      350.487     -23.404      84.345
  N      349.251     -22.262      82.830
  C      348.746     -22.224      81.636
  N      347.965     -21.149      81.324
  C      348.976     -23.270      80.624
  C      349.757     -24.283      80.995
  O      352.718     -26.201      77.090
  O      351.986     -28.682      77.236
  H      350.833     -26.959      84.902
  H      352.863     -28.863      77.660
  H      348.509     -23.204      79.651
  H      349.969     -25.092      80.309
  H      351.709     -25.133      83.589
  H      349.265     -26.513      83.337
  H      349.745     -26.977      80.986
  H      352.521     -27.807      82.068
  H      347.825     -20.449      82.042
  H      353.203     -27.081      79.690
  H      347.472     -21.073      80.444
  H      352.404     -28.659      79.891
  P      348.481     -29.204      81.818
  C      347.094     -31.144      80.753
  O      348.372     -30.634      81.102
  O      347.900     -28.179      80.740
  O      347.778     -29.119      83.135
  H      347.490     -27.410      81.176
  H      347.207     -32.101      80.288
  H      346.615     -30.471      80.073
  H      346.497     -31.244      81.635

 6  7  8  9  10  11  12  13  14  15  16  26  30  31  32  33  35 0
 6-311+G(2d,p)
 ****
 37  38 0
 6-311+G(2d,p)
 ****
 1  2  3  4  5  17  18  19  20  21  22  23  24  25 0
 3-21G
 ****
 27  28  29  34  36  39  40  41  42  43  44  45  46 0
 3-21G
 ****


