%nproc=1
%NoSave
%Mem=1900MB
#P OB98/GEN NMR

erre ene a

0 1
  C     1134.122    -895.897    -717.846
  O     1133.455    -896.395    -718.989
  P     1132.539    -895.354    -719.824
  C     1130.267    -896.700    -720.037
  O     1131.482    -896.259    -720.638
  C     1129.300    -897.192    -721.087
  O     1128.897    -896.079    -721.955
  C     1129.853    -898.214    -722.055
  O     1129.924    -899.522    -721.450
  C     1128.909    -898.120    -723.238
  O     1127.694    -898.856    -722.966
  C     1128.629    -896.619    -723.282
  N     1129.393    -895.902    -724.288
  C     1128.951    -896.036    -725.611
  O     1127.968    -896.727    -725.917
  N     1129.713    -895.389    -726.555
  C     1130.851    -894.679    -726.337
  O     1131.490    -894.155    -727.234
  C     1131.285    -894.607    -724.931
  C     1130.573    -895.196    -723.973
  O     1133.568    -894.853    -720.927
  O     1131.930    -894.280    -718.963
  H     1134.263    -895.503    -721.112
  H     1127.095    -898.733    -723.752
  H     1129.385    -895.465    -727.510
  H     1132.204    -894.060    -724.730
  H     1130.866    -895.143    -722.944
  H     1127.562    -896.424    -723.452
  H     1129.323    -898.536    -724.169
  H     1130.880    -897.934    -722.383
  H     1128.400    -897.572    -720.606
  H     1129.822    -895.869    -719.488
  H     1130.488    -897.524    -719.320
  P     1131.382    -900.134    -721.162
  C     1130.868    -902.237    -722.636
  O     1131.250    -901.720    -721.381
  O     1131.495    -899.971    -719.574
  O     1132.485    -899.455    -721.952
  H     1130.689    -900.195    -719.121
  H     1131.169    -903.295    -722.697
  H     1131.308    -901.709    -723.466
  H     1129.764    -902.194    -722.730
  H     1134.687    -896.684    -717.392
  H     1133.402    -895.526    -717.147
  H     1134.781    -895.105    -718.134

 3  4  5  6  7  8  9  10  11  12  13  24  28  29  30  31  32 0
 6-311+G(2d,p)
 ****
 33  34 0
 6-311+G(2d,p)
 ****
 1  2  14  15  16  17  18  19  20  21  22  23  25  26  27 0
 3-21G
 ****
 35  36  37  38  39  40  41  42  43  44  45 0
 3-21G
 ****


