%nproc=1
%NoSave
%Mem=1900MB
#P OB98/GEN NMR

erre ene a

0 1
  C      152.286     114.942      -5.122
  O      152.330     115.488      -3.818
  H      153.266     114.513      -5.355
  H      152.056     115.713      -5.861
  H      151.538     114.145      -5.171
  P      151.096     116.398      -3.340
  C      149.826     114.187      -2.924
  O      149.788     115.482      -3.523
  C      148.422     113.733      -2.517
  O      147.911     114.576      -1.464
  C      147.397     113.829      -3.637
  O      147.596     112.902      -4.684
  C      146.081     113.836      -2.876
  O      145.591     112.531      -2.580
  C      146.473     114.559      -1.565
  N      145.905     115.898      -1.487
  C      144.527     115.965      -1.311
  O      143.801     114.971      -1.246
  N      143.994     117.224      -1.256
  C      144.684     118.391      -1.406
  O      144.139     119.488      -1.389
  C      146.134     118.256      -1.615
  C      146.671     117.036      -1.644
  O      150.989     117.743      -3.993
  O      151.269     116.468      -1.752
  H      145.299     112.138      -3.425
  H      150.739     117.206      -1.367
  H      142.998     117.291      -1.119
  H      146.713     119.163      -1.742
  H      147.741     116.910      -1.799
  H      146.109     113.991      -0.698
  H      145.299     114.351      -3.438
  H      147.491     114.821      -4.096
  H      148.492     112.709      -2.131
  H      150.456     114.252      -2.031
  H      150.276     113.472      -3.619
  P      147.031     113.115      -6.163
  C      149.369     113.231      -7.291
  O      148.141     113.902      -7.017
  O      145.601     113.541      -6.282
  O      147.140     111.620      -6.761
  H      146.387     111.493      -7.372
  H      150.006     113.872      -7.864
  H      149.171     112.337      -7.845
  H      149.851     112.980      -6.370

 6  7  8  9  10  11  12  13  14  15  16  26  31  32  33  34  35 0
 6-311+G(2d,p)
 ****
 36  37 0
 6-311+G(2d,p)
 ****
 1  2  3  4  5  17  18  19  20  21  22  23  24  25 0
 3-21G
 ****
 27  28  29  30  38  39  40  41  42  43  44  45 0
 3-21G
 ****


