%nproc=1
%NoSave
%Mem=1900MB
#P OB98/GEN NMR

erre ene a

0 1
  C     -158.718     549.503     -85.771
  O     -157.731     549.009     -84.890
  H     -159.312     550.254     -85.242
  H     -159.388     548.704     -86.084
  H     -158.258     549.974     -86.646
  P     -156.733     547.857     -85.397
  C     -156.354     546.676     -83.149
  O     -155.789     547.532     -84.135
  C     -156.544     547.415     -81.814
  O     -157.493     548.502     -81.992
  C     -157.069     546.522     -80.684
  O     -156.305     546.735     -79.489
  C     -158.495     547.016     -80.463
  O     -158.983     546.741     -79.159
  C     -158.338     548.502     -80.825
  N     -159.626     549.144     -81.068
  C     -160.382     549.448     -79.926
  O     -159.945     549.192     -78.802
  N     -161.635     549.993     -80.089
  C     -162.107     550.171     -81.292
  N     -163.362     550.691     -81.380
  C     -161.348     549.832     -82.518
  C     -160.133     549.327     -82.337
  O     -156.007     548.167     -86.670
  O     -157.644     546.542     -85.495
  H     -159.758     547.329     -78.981
  H     -157.222     545.904     -86.118
  H     -161.795     549.992     -83.484
  H     -159.504     549.038     -83.182
  H     -157.816     549.046     -80.033
  H     -159.162     546.520     -81.180
  H     -157.044     545.455     -80.924
  H     -155.588     547.885     -81.540
  H     -163.836     550.909     -80.509
  H     -155.698     545.811     -83.007
  H     -163.843     550.849     -82.249
  H     -157.332     546.329     -83.502
  P     -155.681     545.437     -78.792
  C     -156.970     545.209     -76.552
  O     -155.773     545.630     -77.197
  O     -154.115     545.553     -79.107
  O     -156.259     544.154     -79.311
  H     -153.859     544.854     -79.746
  H     -156.893     545.395     -75.501
  H     -157.116     544.162     -76.719
  H     -157.800     545.753     -76.951

 6  7  8  9  10  11  12  13  14  15  16  26  30  31  32  33  35 0
 6-311+G(2d,p)
 ****
 37  38 0
 6-311+G(2d,p)
 ****
 1  2  3  4  5  17  18  19  20  21  22  23  24  25 0
 3-21G
 ****
 27  28  29  34  36  39  40  41  42  43  44  45  46 0
 3-21G
 ****


