%nproc=1
%NoSave
%Mem=1900MB
#P OB98/GEN NMR

erre ene a

0 1
  C      194.912     429.633    -295.576
  O      194.923     430.739    -294.696
  H      195.714     428.947    -295.291
  H      195.079     429.956    -296.610
  H      193.958     429.103    -295.505
  P      193.947     431.974    -294.993
  C      193.431     433.482    -297.022
  O      194.127     432.331    -296.549
  C      193.800     433.778    -298.478
  O      195.236     434.020    -298.551
  C      193.465     432.636    -299.447
  O      193.018     433.207    -300.679
  C      194.798     431.942    -299.628
  O      194.851     431.219    -300.842
  C      195.788     433.109    -299.522
  N      197.124     432.643    -299.143
  C      197.802     431.861    -300.086
  O      197.283     431.613    -301.173
  N      199.020     431.325    -299.748
  C      199.496     431.512    -298.550
  N      200.689     430.921    -298.274
  C      198.801     432.303    -297.522
  C      197.636     432.841    -297.878
  O      194.063     433.142    -294.069
  O      192.485     431.326    -294.935
  H      195.674     430.685    -300.863
  H      192.128     431.382    -294.028
  H      199.236     432.422    -296.537
  H      197.042     433.429    -297.183
  H      195.861     433.648    -300.478
  H      194.964     431.235    -298.802
  H      192.702     431.956    -299.045
  H      193.306     434.709    -298.779
  H      201.118     430.363    -299.009
  H      193.716     434.332    -296.390
  H      201.137     430.955    -297.370
  H      192.353     433.320    -296.933
  P      191.450     433.276    -301.032
  C      189.639     431.757    -302.016
  O      191.038     431.958    -301.861
  O      191.002     434.567    -301.650
  O      190.729     433.057    -299.610
  H      189.875     433.531    -299.609
  H      189.467     430.862    -302.577
  H      189.214     432.590    -302.536
  H      189.183     431.667    -301.052

 6  7  8  9  10  11  12  13  14  15  16  26  30  31  32  33  35 0
 6-311+G(2d,p)
 ****
 37  38 0
 6-311+G(2d,p)
 ****
 1  2  3  4  5  17  18  19  20  21  22  23  24  25 0
 3-21G
 ****
 27  28  29  34  36  39  40  41  42  43  44  45  46 0
 3-21G
 ****


