%nproc=1
%NoSave
%Mem=1900MB
#P OB98/GEN NMR

erre ene a

0 1
  C      120.146    -280.032    -369.523
  O      119.872    -279.458    -370.785
  H      119.588    -279.481    -368.762
  H      121.210    -279.963    -369.303
  H      119.826    -281.079    -369.503
  P      120.588    -280.142    -372.052
  C      119.594    -280.809    -374.366
  O      119.632    -279.868    -373.308
  C      118.730    -280.286    -375.521
  O      117.367    -280.088    -375.034
  C      119.197    -278.939    -376.088
  O      118.817    -278.884    -377.474
  C      118.358    -277.957    -375.285
  O      118.389    -276.672    -375.869
  C      117.021    -278.705    -375.285
  N      113.130    -275.514    -374.380
  C      113.810    -275.807    -375.507
  N      114.825    -276.678    -375.676
  C      115.119    -277.295    -374.515
  C      114.513    -277.116    -373.289
  C      113.468    -276.165    -373.239
  N      112.781    -275.865    -372.084
  N      115.084    -277.931    -372.321
  C      116.019    -278.594    -372.967
  N      116.088    -278.243    -374.290
  O      120.408    -281.712    -371.768
  O      122.019    -279.776    -372.257
  H      118.012    -276.689    -376.774
  H      121.208    -282.063    -371.333
  H      113.495    -275.262    -376.399
  H      116.688    -279.330    -372.527
  H      116.530    -278.655    -376.262
  H      118.747    -277.853    -374.264
  H      120.275    -278.781    -376.005
  H      118.677    -281.053    -376.309
  H      119.173    -281.750    -373.981
  H      120.613    -281.000    -374.730
  H      112.057    -275.159    -372.131
  H      113.032    -276.330    -371.223
  P      119.902    -279.241    -378.608
  C      119.736    -280.841    -380.676
  O      119.132    -279.819    -379.891
  O      120.590    -280.556    -378.005
  O      120.925    -278.186    -378.875
  H      121.500    -280.624    -378.333
  H      119.085    -281.102    -381.484
  H      119.911    -281.703    -380.066
  H      120.667    -280.487    -381.068

 6  7  8  9  10  11  12  13  14  15  25  28  32  33  34  35 0
 6-311+G(2d,p)
 ****
 36  37  40 0
 6-311+G(2d,p)
 ****
 1  2  3  4  5  16  17  18  19  20  21  22  23  24 0
 3-21G
 ****
 26  27  29  30  31  38  39 41  42  43  44  45  46  47  48 0
 3-21G
 ****


