%nproc=1
%NoSave
%Mem=1900MB
#P OB98/GEN NMR

erre ene a

0 1
  C     -120.308     382.324    -294.654
  O     -121.416     382.375    -293.746
  P     -121.129     382.787    -292.224
  C     -121.145     384.978    -290.815
  O     -121.487     384.337    -292.037
  C     -121.787     386.366    -290.731
  O     -121.455     387.183    -291.874
  C     -123.309     386.334    -290.691
  O     -123.786     386.071    -289.381
  C     -123.645     387.756    -291.106
  O     -123.492     388.641    -289.972
  C     -122.572     388.051    -292.157
  N     -123.436     390.232    -296.711
  C     -123.031     390.742    -295.528
  N     -122.838     390.107    -294.356
  C     -123.102     388.793    -294.485
  C     -123.525     388.125    -295.626
  C     -123.694     388.904    -296.783
  N     -124.105     388.375    -297.987
  N     -123.702     386.783    -295.374
  C     -123.371     386.638    -294.103
  N     -123.014     387.822    -293.523
  O     -119.530     382.772    -292.145
  O     -121.736     381.866    -291.225
  H     -124.296     388.547    -289.425
  H     -119.244     382.474    -291.262
  H     -122.829     391.816    -295.525
  H     -123.376     385.695    -293.564
  H     -122.207     389.087    -292.102
  H     -124.675     387.862    -291.454
  H     -123.710     385.620    -291.429
  H     -121.404     386.864    -289.829
  H     -120.060     385.060    -290.727
  H     -124.179     388.996    -298.778
  H     -124.273     387.382    -298.049
  H     -121.470     384.346    -289.978
  P     -124.347     384.593    -289.082
  C     -123.222     382.380    -288.299
  O     -123.099     383.781    -288.473
  O     -124.534     383.981    -290.548
  O     -125.601     384.560    -288.285
  H     -125.267     383.326    -290.545
  H     -122.226     381.953    -288.179
  H     -123.703     381.915    -289.167
  H     -123.808     382.170    -287.399
  H     -120.655     382.036    -295.624
  H     -119.593     381.609    -294.304
  H     -119.849     383.289    -294.711

 3  4  5  6  7  8  9  10  11  12  22  25  29  30  31  32 0
 6-311+G(2d,p)
 ****
 33  36  37 0
 6-311+G(2d,p)
 ****
 1  2  13  14  15  16  17  18  19  20  21  23  24  26 0
 3-21G
 ****
 27  28  34  35  38  39  40  41  42  43  44  45  46  47  48 0
 3-21G
 ****


