%nproc=1
%NoSave
%Mem=1900MB
#P OB98/GEN NMR

erre ene a

0 1
  C      208.205     214.564     495.297
  O      208.269     215.292     494.082
  P      207.733     214.672     492.705
  C      207.736     216.828     491.294
  O      208.374     215.581     491.543
  C      208.450     217.612     490.194
  O      209.766     218.017     490.660
  C      208.645     216.837     488.877
  O      208.547     217.799     487.823
  C      210.067     216.324     489.006
  O      210.635     215.956     487.755
  C      210.738     217.516     489.711
  N      211.991     217.135     490.354
  C      213.094     216.929     489.514
  O      212.961     216.997     488.291
  N      214.304     216.601     490.077
  C      214.379     216.393     491.353
  N      215.606     216.073     491.853
  C      213.217     216.469     492.253
  C      212.068     216.856     491.699
  O      206.256     214.489     492.618
  O      208.555     213.306     492.560
  H      210.582     216.728     487.151
  H      208.175     212.610     493.156
  H      213.316     216.230     493.307
  H      211.159     216.944     492.284
  H      210.943     218.321     488.996
  H      210.084     215.440     489.653
  H      207.917     216.031     488.734
  H      207.879     218.528     490.004
  H      216.381     216.041     491.200
  H      207.768     217.413     492.222
  H      215.791     215.967     492.837
  H      206.683     216.665     491.037
  P      207.777     217.469     486.458
  C      207.849     219.878     485.579
  O      208.274     218.540     485.371
  O      206.292     217.344     486.587
  O      208.438     216.099     485.947
  H      207.865     215.695     485.269
  H      208.460     220.540     484.961
  H      207.961     220.163     486.630
  H      206.801     219.978     485.282
  H      208.613     215.156     496.090
  H      208.769     213.660     495.201
  H      207.185     214.327     495.517

 3  4  5  6  7  8  9  10  11  12  13  23  27  28  29  30  32 0
 6-311+G(2d,p)
 ****
 34  35 0
 6-311+G(2d,p)
 ****
 1  2  14  15  16  17  18  19  20  21  22  24  25  26 0
 3-21G
 ****
 31  33  36  37  38  39  40  41  42  43  44  45  46 0
 3-21G
 ****


