%nproc=1
%NoSave
%Mem=1900MB
#P OB98/GEN NMR

erre ene a

0 1
  C     -159.580     145.841     389.676
  O     -159.393     144.669     390.444
  H     -160.640     145.935     389.432
  H     -159.007     145.784     388.746
  H     -159.270     146.718     390.251
  P     -157.886     144.313     390.861
  C     -157.471     142.749     388.853
  O     -157.150     143.992     389.469
  C     -156.790     142.637     387.490
  O     -157.034     141.307     386.962
  C     -157.311     143.646     386.460
  O     -156.230     144.063     385.624
  C     -158.292     142.825     385.638
  O     -158.504     143.376     384.340
  C     -157.614     141.456     385.653
  N     -160.245     139.135     381.961
  C     -159.249     140.048     381.927
  N     -158.586     140.600     382.963
  C     -159.005     140.068     384.130
  C     -160.006     139.135     384.324
  C     -160.651     138.662     383.164
  N     -161.688     137.761     383.190
  N     -160.171     138.880     385.670
  C     -159.280     139.641     386.280
  N     -158.567     140.394     385.387
  O     -157.737     143.268     391.915
  O     -157.298     145.754     391.234
  H     -157.686     143.252     383.813
  H     -157.531     146.422     390.562
  H     -158.955     140.387     380.936
  H     -159.130     139.695     387.353
  H     -156.815     141.372     384.903
  H     -159.261     142.785     386.147
  H     -157.786     144.517     386.915
  H     -155.707     142.730     387.626
  H     -158.555     142.659     388.731
  H     -162.092     137.478     382.311
  H     -162.002     137.393     384.078
  H     -157.129     141.947     389.520
  P     -155.471     145.437     385.958
  C     -156.571     147.026     384.250
  O     -156.457     146.663     385.618
  O     -154.092     145.566     385.404
  O     -155.450     145.449     387.562
  H     -154.577     145.764     387.868
  H     -157.250     147.847     384.154
  H     -156.939     146.192     383.689
  H     -155.610     147.312     383.876

 6  7  8  9  10  11  12  13  14  15  25  28  32  33  34  35 0
 6-311+G(2d,p)
 ****
 36  39  40 0
 6-311+G(2d,p)
 ****
 1  2  3  4  5  16  17  18  19  20  21  22  23  24 0
 3-21G
 ****
 26  27  29  30  31  37  38  41  42  43  44  45  46  47 0
 3-21G
 ****
 48 0
 3-21G
 ****


