%nproc=1
%NoSave
%Mem=1900MB
#P OB98/GEN NMR

erre ene a

0 1
  C     -119.563     -95.076    -206.602
  O     -120.911     -94.784    -206.280
  P     -122.029     -95.885    -206.598
  C     -121.022     -97.748    -205.089
  O     -121.360     -97.330    -206.402
  C     -120.717     -99.246    -205.068
  O     -120.237     -99.623    -203.743
  C     -121.929    -100.134    -205.384
  O     -121.448    -101.291    -206.084
  C     -122.408    -100.539    -204.002
  O     -123.229    -101.696    -204.012
  C     -121.062    -100.716    -203.292
  N     -121.184    -100.736    -201.836
  C     -121.235    -101.980    -201.215
  O     -121.185    -103.051    -201.817
  N     -121.413    -101.963    -199.859
  C     -121.629    -100.856    -199.090
  O     -121.900    -100.916    -197.897
  C     -121.565     -99.568    -199.800
  C     -121.348     -99.568    -201.117
  O     -122.220     -95.766    -208.182
  O     -123.315     -95.698    -205.866
  H     -124.029    -101.483    -204.526
  H     -123.016     -95.244    -208.391
  H     -121.442    -102.854    -199.391
  H     -121.712     -98.669    -199.217
  H     -121.316     -98.633    -201.669
  H     -120.577    -101.642    -203.628
  H     -122.987     -99.719    -203.563
  H     -122.703     -99.629    -205.970
  H     -119.903     -99.447    -205.776
  H     -121.860     -97.541    -204.420
  H     -120.160     -97.173    -204.732
  P     -122.317    -101.838    -207.319
  C     -121.121    -100.960    -209.469
  O     -122.141    -100.784    -208.510
  O     -123.803    -101.567    -206.780
  O     -122.053    -103.271    -207.651
  H     -123.893    -100.699    -206.353
  H     -120.941    -102.017    -209.676
  H     -120.198    -100.501    -209.106
  H     -121.419    -100.466    -210.398
  H     -118.944     -94.247    -206.330
  H     -119.478     -95.255    -207.654
  H     -119.249     -95.947    -206.065

 3  4  5  6  7  8  9  10  11  12  13  23  28  29  30  31  32 0
 6-311+G(2d,p)
 ****
 33  34 0
 6-311+G(2d,p)
 ****
 1  2  14  15  16  17  18  19  20  21  22  24  25  26 0
 3-21G
 ****
 27  35  36  37  38  39  40  41  42  43  44  45 0
 3-21G
 ****


