%nproc=1
%NoSave
%Mem=1900MB
#P OB98/GEN NMR

erre ene a

0 1
  C      116.505     -71.897     -11.041
  O      116.474     -72.638     -12.250
  P      117.296     -74.016     -12.301
  C      119.485     -72.668     -12.671
  O      118.816     -73.671     -11.919
  C      120.885     -72.408     -12.108
  O      120.768     -72.038     -10.705
  C      121.838     -73.613     -12.188
  O      123.150     -73.086     -12.420
  C      121.722     -74.201     -10.791
  O      122.772     -75.090     -10.450
  C      121.638     -72.922      -9.962
  N      122.860     -73.241      -5.007
  C      123.596     -72.929      -6.098
  N      123.201     -72.857      -7.386
  C      121.890     -73.136      -7.495
  C      121.017     -73.488      -6.479
  C      121.550     -73.535      -5.180
  N      120.797     -73.863      -4.069
  N      119.753     -73.730      -6.978
  C      119.860     -73.529      -8.275
  N      121.125     -73.149      -8.631
  O      117.374     -74.333     -13.866
  O      116.684     -75.146     -11.530
  H      122.467     -75.719      -9.766
  H      117.275     -75.288     -14.040
  H      124.643     -72.709      -5.911
  H      119.064     -73.658      -8.997
  H      122.614     -72.430      -9.869
  H      120.786     -74.768     -10.723
  H      121.586     -74.312     -12.988
  H      121.315     -71.549     -12.638
  H      118.916     -71.734     -12.618
  H      121.311     -74.062      -3.222
  H      119.888     -74.278      -4.235
  H      119.533     -72.973     -13.721
  P      124.243     -74.018     -13.138
  C      125.715     -74.148     -11.034
  O      124.883     -74.862     -11.930
  O      125.403     -72.951     -13.434
  O      123.772     -74.774     -14.332
  H      125.630     -72.439     -12.638
  H      125.999     -74.815     -10.215
  H      125.181     -73.286     -10.623
  H      126.621     -73.817     -11.551
  H      115.918     -71.009     -11.152
  H      117.516     -71.630     -10.812
  H      116.105     -72.493     -10.247

 3  4  5  6  7  8  9  10  11  12  22  25  29  30  31  32 0
 6-311+G(2d,p)
 ****
 33  36  37 0
 6-311+G(2d,p)
 ****
 1  2  13  14  15  16  17  18  19  20  21  23  24  26 0
 3-21G
 ****
 27  28  34  35  38  39  40  41  42  43  44  45  46  47  48 0
 3-21G
 ****


