%nproc=1
%NoSave
%Mem=1900MB
#P OB98/GEN NMR

erre ene a

0 1
  C     1244.014     427.653    1175.572
  O     1244.851     427.880    1174.452
  H     1244.623     427.374    1176.436
  H     1243.470     428.583    1175.804
  H     1243.283     426.870    1175.362
  P     1245.505     426.599    1173.749
  C     1247.812     427.006    1174.876
  O     1247.088     426.887    1173.657
  C     1249.223     426.429    1174.718
  O     1249.112     424.967    1174.631
  C     1249.980     426.915    1173.457
  O     1251.355     427.100    1173.812
  C     1249.860     425.746    1172.510
  O     1250.914     425.695    1171.553
  C     1249.871     424.562    1173.472
  N     1250.970     420.405    1170.741
  C     1251.756     421.259    1171.442
  N     1251.370     422.313    1172.195
  C     1250.031     422.419    1172.223
  C     1249.111     421.623    1171.579
  C     1249.624     420.585    1170.779
  N     1248.833     419.758    1170.006
  N     1247.805     422.070    1171.816
  C     1247.967     423.142    1172.585
  N     1249.290     423.389    1172.856
  O     1245.008     426.746    1172.235
  O     1245.127     425.280    1174.338
  H     1250.973     426.565    1171.109
  H     1244.148     426.322    1172.135
  H     1252.820     421.071    1171.393
  H     1247.162     423.782    1172.932
  H     1250.883     424.292    1173.804
  H     1248.904     425.800    1171.976
  H     1249.578     427.855    1173.047
  H     1249.791     426.651    1175.618
  H     1247.279     426.462    1175.655
  H     1249.316     419.111    1169.394
  H     1247.846     419.950    1169.943
  H     1247.870     428.074    1175.159
  P     1251.760     428.466    1174.548
  C     1253.128     429.444    1172.548
  O     1253.129     429.008    1173.915
  O     1252.200     427.987    1176.016
  O     1250.636     429.478    1174.607
  H     1251.975     428.659    1176.670
  H     1254.109     429.774    1172.278
  H     1252.436     430.252    1172.432
  H     1252.838     428.632    1171.915

 6  7  8  9  10  11  12  13  14  15  25  28  32  33  34  35 0
 6-311+G(2d,p)
 ****
 36  39  40 0
 6-311+G(2d,p)
 ****
 1  2  3  4  5  16  17  18  19  20  21  22  23  24 0
 3-21G
 ****
 26  27  29  30  31  37  38  41  42  43  44  45  46  47 0
 3-21G
 ****
 48 0
 3-21G
 ****


