%nproc=1
%NoSave
%Mem=1900MB
#P OB98/GEN NMR

erre ene a

0 1
  C      483.043     753.971      46.050
  O      483.184     753.005      47.080
  P      483.006     753.412      48.615
  C      485.542     753.018      48.892
  O      484.452     753.923      49.099
  C      486.821     753.562      49.531
  O      487.414     754.586      48.700
  C      486.616     754.193      50.897
  O      486.468     753.200      51.904
  C      487.882     755.041      51.026
  O      488.988     754.243      51.480
  C      488.105     755.504      49.569
  N      487.682     756.884      49.353
  C      488.681     757.851      49.439
  O      489.856     757.525      49.716
  N      488.341     759.171      49.262
  C      487.110     759.486      49.040
  N      486.825     760.810      48.887
  C      486.009     758.492      48.980
  C      486.365     757.233      49.147
  O      482.368     752.382      49.482
  O      482.163     754.786      48.529
  H      489.782     754.821      51.444
  H      481.223     754.611      48.296
  H      484.993     758.816      48.807
  H      485.626     756.434      49.118
  H      489.172     755.426      49.307
  H      487.758     755.853      51.741
  H      485.738     754.854      50.871
  H      487.541     752.728      49.612
  H      487.597     761.467      48.963
  H      485.695     752.903      47.818
  H      485.903     761.175      48.757
  H      485.284     752.037      49.310
  P      485.943     753.611      53.351
  C      488.007     752.724      54.607
  O      487.233     753.858      54.277
  O      484.904     752.714      53.934
  O      485.359     755.084      53.143
  H      484.497     755.161      53.608
  H      488.993     753.055      54.931
  H      488.114     752.061      53.731
  H      487.520     752.177      55.419
  H      483.198     753.504      45.100
  H      483.766     754.748      46.188
  H      482.059     754.389      46.085

 3  4  5  6  7  8  9  10  11  12  13  23  27  28  29  30  32 0
 6-311+G(2d,p)
 ****
 34  35 0
 6-311+G(2d,p)
 ****
 1  2  14  15  16  17  18  19  20  21  22  24  25  26 0
 3-21G
 ****
 31  33  36  37  38  39  40  41  42  43  44  45  46 0
 3-21G
 ****


