%nproc=1
%NoSave
%Mem=1900MB
#P OB98/GEN NMR

erre ene a

0 1
  C       -1.114    -297.033     142.776
  O       -0.339    -296.518     143.841
  H       -1.373    -298.074     142.982
  H       -2.035    -296.450     142.698
  H       -0.571    -296.963     141.830
  P        1.180    -297.019     143.951
  C        2.576    -295.032     143.032
  O        1.983    -296.294     142.762
  C        4.008    -295.210     143.531
  O        4.801    -295.798     142.461
  C        4.696    -293.904     143.961
  O        5.497    -294.173     145.116
  C        5.608    -293.589     142.789
  O        6.726    -292.793     143.162
  C        5.982    -294.991     142.319
  N       10.109    -294.462     139.397
  C        9.964    -294.716     140.713
  N        8.821    -294.897     141.406
  C        7.757    -294.859     140.585
  C        7.749    -294.616     139.223
  C        8.999    -294.392     138.623
  N        9.154    -294.063     137.296
  N        6.452    -294.599     138.746
  C        5.693    -294.804     139.804
  N        6.438    -294.965     140.940
  O        1.077    -298.540     143.460
  O        1.799    -296.910     145.303
  H        7.313    -293.322     143.737
  H        0.868    -299.115     144.217
  H       10.884    -294.772     141.291
  H        4.613    -294.814     139.810
  H        6.783    -295.438     142.921
  H        5.042    -293.053     142.019
  H        3.998    -293.087     144.178
  H        4.001    -295.932     144.357
  H        1.992    -294.521     143.807
  H       10.078    -293.814     136.979
  H        8.332    -293.899     136.734
  H        2.562    -294.423     142.123
  P        5.681    -292.987     146.179
  C        4.055    -293.817     148.034
  O        4.330    -292.850     147.028
  O        5.679    -291.673     145.266
  O        6.932    -293.091     146.990
  H        6.256    -290.993     145.652
  H        3.123    -293.586     148.506
  H        4.837    -293.804     148.764
  H        3.998    -294.788     147.589

 6  7  8  9  10  11  12  13  14  15  25  28  32  33  34  35 0
 6-311+G(2d,p)
 ****
 36  39  40 0
 6-311+G(2d,p)
 ****
 1  2  3  4  5  16  17  18  19  20  21  22  23  24 0
 3-21G
 ****
 26  27  29  30  31  37  38  41  42  43  44  45  46  47 0
 3-21G
 ****
 48 0
 3-21G
 ****


