%nproc=1
%NoSave
%Mem=1900MB
#P OB98/GEN NMR

erre ene a

0 1
  C     -207.006     222.901      36.245
  O     -208.414     222.920      36.357
  H     -206.715     222.090      35.579
  H     -206.558     222.730      37.228
  H     -206.642     223.848      35.832
  P     -209.065     224.118      37.202
  C     -209.572     222.987      39.495
  O     -208.709     223.825      38.741
  C     -208.857     222.512      40.761
  O     -208.654     223.653      41.640
  C     -209.655     221.464      41.552
  O     -208.745     220.516      42.118
  C     -210.300     222.283      42.657
  O     -210.653     221.514      43.802
  C     -209.210     223.320      42.926
  N     -209.727     224.516      43.594
  C     -208.935     225.096      44.577
  O     -207.804     224.720      44.879
  N     -209.502     226.160      45.241
  C     -210.752     226.665      45.038
  O     -211.205     227.602      45.678
  C     -211.544     226.007      43.985
  C     -211.005     224.977      43.326
  O     -210.635     223.811      37.128
  O     -208.728     225.495      36.741
  H     -211.035     224.255      36.358
  H     -211.026     222.126      44.473
  H     -208.938     226.589      45.961
  H     -212.542     226.377      43.798
  H     -211.567     224.463      42.554
  H     -208.407     222.880      43.528
  H     -211.212     222.763      42.281
  H     -210.393     220.943      40.941
  H     -207.863     222.132      40.492
  H     -209.848     222.118      38.892
  H     -210.476     223.544      39.756
  P     -208.618     219.089      41.388
  C     -210.984     218.406      42.267
  O     -210.122     218.578      41.155
  O     -208.066     218.172      42.575
  O     -207.761     219.137      40.168
  H     -208.436     218.396      43.446
  H     -211.939     218.063      41.928
  H     -211.100     219.340      42.776
  H     -210.563     217.685      42.936

 6  7  8  9  10  11  12  13  14  15  16  27  31  32  33  34  35 0
 6-311+G(2d,p)
 ****
 36  37 0
 6-311+G(2d,p)
 ****
 1  2  3  4  5  17  18  19  20  21  22  23  24  25 0
 3-21G
 ****
 26  28  29  30  38  39  40  41  42  43  44  45 0
 3-21G
 ****


