%nproc=1
%NoSave
%Mem=1900MB
#P OB98/GEN NMR

erre ene a

0 1
  C     -731.257    -402.352    -196.768
  O     -730.149    -401.932    -197.534
  P     -729.889    -400.378    -197.809
  C     -727.808    -400.388    -196.278
  O     -729.098    -399.844    -196.507
  C     -726.715    -399.426    -196.781
  O     -726.873    -398.132    -196.159
  C     -725.307    -399.878    -196.447
  O     -724.882    -400.911    -197.328
  C     -724.533    -398.564    -196.602
  O     -724.222    -398.307    -197.978
  C     -725.556    -397.534    -196.072
  N     -725.260    -397.106    -194.709
  C     -724.147    -396.267    -194.570
  O     -723.468    -395.968    -195.547
  N     -723.803    -395.832    -193.311
  C     -724.509    -396.219    -192.283
  N     -724.104    -395.763    -191.066
  C     -725.667    -397.131    -192.388
  C     -725.982    -397.522    -193.626
  O     -731.098    -399.591    -198.182
  O     -728.747    -400.386    -198.928
  H     -723.365    -398.752    -198.145
  H     -729.121    -400.641    -199.816
  H     -726.219    -397.430    -191.502
  H     -726.822    -398.183    -193.784
  H     -725.586    -396.658    -196.720
  H     -723.597    -398.569    -196.051
  H     -725.253    -400.222    -195.411
  H     -726.836    -399.320    -197.857
  H     -723.284    -395.177    -191.035
  H     -727.736    -401.346    -196.829
  H     -724.565    -396.038    -190.200
  H     -727.675    -400.607    -195.214
  P     -724.611    -402.377    -196.759
  C     -726.692    -403.428    -197.854
  O     -726.023    -403.120    -196.642
  O     -723.748    -402.457    -195.557
  O     -723.916    -403.141    -197.993
  H     -723.153    -403.654    -197.671
  H     -727.448    -404.186    -197.662
  H     -725.993    -403.786    -198.612
  H     -727.196    -402.518    -198.228
  H     -731.258    -403.420    -196.698
  H     -732.161    -402.025    -197.239
  H     -731.193    -401.930    -195.787

 3  4  5  6  7  8  9  10  11  12  13  23  27  28  29  30  32 0
 6-311+G(2d,p)
 ****
 34  35 0
 6-311+G(2d,p)
 ****
 1  2  14  15  16  17  18  19  20  21  22  24  25  26 0
 3-21G
 ****
 31  33  36  37  38  39  40  41  42  43  44  45  46 0
 3-21G
 ****


