%nproc=1
%NoSave
%Mem=1900MB
#P OB98/GEN NMR

erre ene a

0 1
  C      -27.447     -46.695     -17.991
  O      -27.506     -45.742     -16.950
  H      -26.627     -46.430     -18.664
  H      -28.381     -46.692     -18.558
  H      -27.261     -47.693     -17.584
  P      -28.624     -45.975     -15.823
  C      -30.314     -44.313     -16.892
  O      -30.035     -45.657     -16.517
  C      -31.715     -44.225     -17.490
  O      -31.737     -44.906     -18.765
  C      -32.798     -44.893     -16.650
  O      -33.208     -44.076     -15.568
  C      -33.886     -45.113     -17.692
  O      -34.680     -43.935     -17.882
  C      -33.077     -45.409     -18.962
  N      -35.855     -49.371     -20.559
  C      -36.150     -48.060     -20.416
  N      -35.343     -47.061     -20.000
  C      -34.114     -47.530     -19.728
  C      -33.670     -48.837     -19.820
  C      -34.603     -49.788     -20.263
  N      -34.314     -51.128     -20.375
  N      -32.355     -48.932     -19.410
  C      -32.009     -47.703     -19.085
  N      -33.038     -46.824     -19.267
  O      -28.398     -44.733     -14.835
  O      -28.544     -47.281     -15.108
  H      -34.081     -43.249     -18.233
  H      -27.817     -45.003     -14.099
  H      -37.170     -47.778     -20.664
  H      -31.037     -47.405     -18.709
  H      -33.487     -44.899     -19.842
  H      -34.562     -45.916     -17.396
  H      -32.450     -45.868     -16.290
  H      -31.954     -43.168     -17.665
  H      -29.582     -43.987     -17.639
  H      -30.231     -43.673     -16.008
  H      -35.040     -51.757     -20.677
  H      -33.416     -51.464     -20.054
  P      -33.383     -44.748     -14.126
  C      -35.951     -44.996     -14.443
  O      -34.718     -45.638     -14.162
  O      -33.775     -43.512     -13.190
  O      -32.176     -45.468     -13.624
  H      -32.997     -43.204     -12.688
  H      -36.740     -45.718     -14.431
  H      -35.902     -44.537     -15.408
  H      -36.141     -44.248     -13.702

 6  7  8  9  10  11  12  13  14  15  25  28  32  33  34  35 0
 6-311+G(2d,p)
 ****
 36  37  40 0
 6-311+G(2d,p)
 ****
 1  2  3  4  5  16  17  18  19  20  21  22  23  24 0
 3-21G
 ****
 26  27  29  30  31  38  39 41  42  43  44  45  46  47  48 0
 3-21G
 ****


