%nproc=1
%NoSave
%Mem=1900MB
#P OB98/GEN NMR

erre ene a

0 1
  C       11.981     -93.374      27.417
  O       11.265     -93.423      26.170
  P       11.191     -92.101      25.261
  C        8.595     -91.987      25.022
  O        9.852     -92.104      24.376
  C        7.558     -92.933      24.397
  O        7.415     -92.651      22.974
  C        7.900     -94.424      24.526
  O        6.658     -95.132      24.644
  C        8.548     -94.728      23.188
  O        8.557     -96.112      22.870
  C        7.672     -93.878      22.262
  N        8.268     -93.605      20.954
  C        8.440     -94.674      20.080
  O        8.181     -95.843      20.354
  N        8.962     -94.360      18.851
  C        9.358     -93.122      18.436
  O        9.848     -92.912      17.333
  C        9.181     -92.038      19.411
  C        8.654     -92.325      20.602
  O       12.322     -92.389      24.162
  O       11.479     -90.818      25.970
  H        8.928     -96.202      21.974
  H       12.875     -91.594      24.042
  H        9.080     -95.119      18.200
  H        9.478     -91.040      19.119
  H        8.502     -91.537      21.333
  H        6.703     -94.370      22.122
  H        9.587     -94.383      23.201
  H        8.545     -94.644      25.380
  H        6.585     -92.723      24.858
  H        8.237     -90.958      24.930
  H        8.718     -92.215      26.086
  P        6.305     -95.829      26.050
  C        6.648     -98.256      25.137
  O        5.786     -97.309      25.728
  O        4.960     -95.042      26.428
  O        7.372     -95.704      27.087
  H        4.347     -94.964      25.679
  H        7.653     -98.204      25.564
  H        6.701     -98.083      24.060
  H        6.245     -99.256      25.314
  H       11.933     -94.331      27.894
  H       11.539     -92.636      28.053
  H       13.003     -93.119      27.231

 3  4  5  6  7  8  9  10  11  12  13  23  28  29  30  31  32 0
 6-311+G(2d,p)
 ****
 33  34 0
 6-311+G(2d,p)
 ****
 1  2  14  15  16  17  18  19  20  21  22  24  25  26 0
 3-21G
 ****
 27  35  36  37  38  39  40  41  42  43  44  45 0
 3-21G
 ****


