%nproc=1
%NoSave
%Mem=1900MB
#P OB98/GEN NMR

erre ene a

0 1
  C     1462.633     108.055     717.234
  O     1463.970     108.500     717.426
  P     1465.046     108.412     716.267
  C     1465.021     110.950     715.561
  O     1464.780     109.600     715.235
  C     1466.244     111.449     714.757
  O     1466.091     111.146     713.357
  C     1466.434     112.959     714.901
  O     1467.356     113.259     715.949
  C     1466.942     113.369     713.516
  O     1468.349     113.092     713.406
  C     1466.137     112.398     712.611
  N     1464.744     112.751     712.239
  C     1464.375     112.746     710.899
  O     1465.134     112.442     709.983
  N     1463.084     113.183     710.638
  C     1462.147     113.530     711.578
  O     1461.104     114.110     711.311
  C     1462.507     113.251     712.973
  C     1463.796     112.911     713.231
  O     1464.596     107.115     715.450
  O     1466.481     108.337     716.693
  H     1468.600     113.246     712.494
  H     1465.140     106.338     715.698
  H     1462.856     113.296     709.649
  H     1461.753     113.373     713.729
  H     1464.080     112.728     714.255
  H     1466.687     112.191     711.679
  H     1466.796     114.434     713.353
  H     1465.460     113.463     715.079
  H     1467.133     110.930     715.123
  H     1465.220     111.035     716.628
  H     1464.144     111.577     715.322
  P     1467.525     114.764     716.440
  C     1465.942     114.296     718.425
  O     1466.158     115.114     717.254
  O     1467.907     115.751     715.389
  O     1468.656     114.648     717.580
  H     1469.512     114.879     717.208
  H     1465.080     114.761     718.955
  H     1466.810     114.282     719.057
  H     1465.658     113.286     718.092
  H     1462.075     108.203     718.135
  H     1462.636     107.015     716.983
  H     1462.182     108.613     716.440

 3  4  5  6  7  8  9  10  11  12  13  23  28  29  30  31  32 0
 6-311+G(2d,p)
 ****
 33  34 0
 6-311+G(2d,p)
 ****
 1  2  14  15  16  17  18  19  20  21  22  24  25  26  27 0
 3-21G
 ****
 35  36  37  38  39  40  41  42  43  44  45 0
 3-21G
 ****


