%nproc=1
%NoSave
%Mem=1900MB
#P OB98/GEN NMR

erre ene a

0 1
  C     1186.115    -196.030    -299.881
  O     1186.123    -195.648    -298.524
  H     1187.035    -196.596    -300.093
  H     1186.094    -195.148    -300.529
  H     1185.251    -196.672    -300.092
  P     1184.864    -194.782    -298.018
  C     1186.419    -193.598    -296.294
  O     1185.485    -193.451    -297.372
  C     1187.225    -192.303    -296.136
  O     1188.271    -192.227    -297.120
  C     1186.420    -191.029    -296.248
  O     1185.769    -190.717    -295.021
  C     1187.500    -190.012    -296.603
  O     1188.219    -189.587    -295.440
  C     1188.413    -190.847    -297.529
  N     1187.794    -187.556    -301.316
  C     1188.173    -187.345    -300.014
  N     1188.372    -186.056    -299.637
  N     1188.338    -188.321    -299.138
  C     1188.088    -189.537    -299.657
  C     1187.696    -189.886    -300.925
  C     1187.545    -188.801    -301.887
  O     1187.269    -188.938    -303.092
  N     1187.526    -191.234    -301.053
  C     1187.763    -191.702    -299.846
  N     1188.087    -190.718    -298.932
  O     1184.338    -195.601    -296.739
  O     1183.777    -194.585    -299.028
  H     1188.815    -190.302    -295.153
  H     1183.378    -195.471    -296.659
  H     1187.696    -186.783    -301.946
  H     1187.729    -192.766    -299.564
  H     1189.454    -190.576    -297.419
  H     1187.077    -189.121    -297.071
  H     1187.962    -185.290    -300.141
  H     1185.695    -191.100    -297.067
  H     1188.649    -185.905    -298.675
  H     1187.718    -192.374    -295.133
  H     1187.074    -194.421    -296.524
  H     1185.856    -193.820    -295.376
  P     1184.178    -190.481    -295.068
  C     1184.449    -188.985    -292.952
  O     1183.907    -189.109    -294.251
  O     1183.609    -191.595    -294.088
  O     1183.563    -190.562    -296.431
  H     1182.660    -191.715    -294.222
  H     1184.186    -188.031    -292.545
  H     1185.514    -189.071    -293.000
  H     1184.057    -189.760    -292.327

 6  7  8  9  10  11  12  13  14  15  26  29  33  34 0
 6-311+G(2d,p)
 ****
 36  38  39  40  41 0
 6-311+G(2d,p)
 ****
 1  2  3  4  5  16  17  18  19  20  21  22  23  24  25 0
 3-21G
 ****
 27  28  30  31  32  35  37  42  43  44  45  46  47 0
 3-21G
 ****
 48  49 0
 3-21G
 ****


