%nproc=1
%NoSave
%Mem=1900MB
#P OB98/GEN NMR

erre ene a

0 1
  C     -948.878      -8.945    -337.129
  O     -949.355      -9.808    -338.140
  H     -947.892      -8.585    -337.411
  H     -948.797      -9.484    -336.177
  H     -949.544      -8.088    -337.011
  P     -950.790     -10.516    -337.946
  C     -951.662     -12.530    -336.588
  O     -950.566     -11.657    -336.833
  C     -951.251     -13.622    -335.596
  O     -950.195     -14.436    -336.144
  C     -950.736     -13.089    -334.256
  O     -951.833     -12.749    -333.410
  C     -949.965     -14.311    -333.760
  O     -950.894     -15.290    -333.258
  C     -949.310     -14.807    -335.054
  N     -944.300     -15.487    -334.535
  C     -945.354     -16.216    -334.017
  N     -945.017     -17.255    -333.201
  N     -946.617     -15.944    -334.232
  C     -946.786     -14.849    -335.005
  C     -945.833     -14.039    -335.576
  C     -944.434     -14.389    -335.373
  O     -943.464     -13.780    -335.854
  N     -946.383     -12.959    -336.216
  C     -947.678     -13.134    -336.078
  N     -947.982     -14.269    -335.339
  O     -951.456     -11.003    -339.190
  O     -951.658      -9.421    -337.176
  H     -951.542     -14.806    -332.703
  H     -952.163      -8.859    -337.811
  H     -943.342     -15.748    -334.322
  H     -948.452     -12.491    -336.482
  H     -949.218     -15.897    -335.072
  H     -949.268     -14.059    -332.948
  H     -944.086     -17.411    -332.870
  H     -950.048     -12.252    -334.396
  H     -945.770     -17.745    -332.743
  H     -952.122     -14.281    -335.450
  H     -951.964     -12.973    -337.546
  H     -952.514     -11.967    -336.184
  P     -951.597     -11.934    -332.040
  C     -951.132     -12.764    -329.639
  O     -950.919     -12.974    -331.025
  O     -952.825     -11.239    -331.515
  O     -950.385     -10.922    -332.383
  H     -950.679     -10.103    -332.813
  H     -950.627     -13.525    -329.081
  H     -952.180     -12.804    -329.429
  H     -950.749     -11.804    -329.361

 6  7  8  9  10  11  12  13  14  15  26  29  33  34 0
 6-311+G(2d,p)
 ****
 36  38  39  40  41 0
 6-311+G(2d,p)
 ****
 1  2  3  4  5  16  17  18  19  20  21  22  23  24  25 0
 3-21G
 ****
 27  28  30  31  32  35  37  42  43  44  45  46  47 0
 3-21G
 ****
 48  49 0
 3-21G
 ****


