%nproc=1
%NoSave
%Mem=1900MB
#P OB98/GEN NMR

erre ene a

0 1
  C      250.944      52.562    -594.482
  O      252.330      52.335    -594.608
  H      250.502      52.582    -595.482
  H      250.769      53.528    -594.000
  H      250.464      51.770    -593.905
  P      253.170      51.940    -593.305
  C      254.568      54.109    -593.283
  O      253.616      53.307    -592.598
  C      255.217      55.121    -592.328
  O      256.113      54.415    -591.433
  C      256.060      56.148    -593.087
  O      256.136      57.394    -592.399
  C      257.438      55.506    -593.104
  O      258.494      56.449    -593.286
  C      257.459      54.807    -591.746
  N      261.622      52.662    -589.730
  C      261.179      53.968    -589.635
  N      261.946      54.807    -588.903
  N      260.097      54.409    -590.223
  C      259.470      53.476    -590.975
  C      259.825      52.162    -591.170
  C      261.004      51.672    -590.486
  O      261.453      50.532    -590.556
  N      258.950      51.524    -592.015
  C      258.072      52.450    -592.335
  N      258.330      53.649    -591.711
  O      254.554      51.391    -593.900
  O      252.524      50.934    -592.400
  H      258.491      57.042    -592.513
  H      254.995      50.812    -593.253
  H      262.443      52.365    -589.236
  H      257.224      52.306    -592.998
  H      257.798      55.498    -590.961
  H      257.479      54.808    -593.943
  H      262.876      54.556    -588.606
  H      255.701      56.324    -594.099
  H      261.813      55.809    -589.078
  H      254.448      55.590    -591.702
  H      254.036      54.622    -594.086
  H      255.328      53.479    -593.749
  P      255.130      58.565    -592.823
  C      256.468      59.329    -594.973
  O      255.274      58.868    -594.382
  O      255.747      59.864    -592.123
  O      253.710      58.336    -592.417
  H      255.135      60.212    -591.448
  H      256.319      59.458    -596.025
  H      257.247      58.614    -594.809
  H      256.745      60.265    -594.534

 6  7  8  9  10  11  12  13  14  15  26  29  33  34 0
 6-311+G(2d,p)
 ****
 36  38  39  40  41 0
 6-311+G(2d,p)
 ****
 1  2  3  4  5  16  17  18  19  20  21  22  23  24  25 0
 3-21G
 ****
 27  28  30  31  32  35  37  42  43  44  45  46  47 0
 3-21G
 ****
 48  49 0
 3-21G
 ****


