%nproc=1
%NoSave
%Mem=1900MB
#P OB98/GEN NMR

erre ene a

0 1
  C     -844.107     211.931    -895.720
  O     -843.440     212.640    -894.710
  H     -843.357     211.464    -896.380
  H     -844.730     212.588    -896.330
  H     -844.718     211.121    -895.300
  P     -844.366     213.417    -893.650
  C     -842.998     215.590    -894.070
  O     -844.296     214.956    -894.100
  C     -843.089     216.974    -894.690
  O     -843.381     216.877    -896.110
  C     -844.140     217.875    -894.100
  O     -843.654     218.513    -892.910
  C     -844.343     218.886    -895.220
  O     -843.285     219.897    -895.170
  C     -844.176     218.021    -896.490
  N     -848.333     219.403    -899.180
  C     -847.355     220.153    -898.560
  N     -846.314     219.706    -897.830
  C     -846.323     218.363    -897.740
  C     -847.229     217.477    -898.310
  C     -848.281     218.049    -899.040
  N     -849.268     217.311    -899.650
  N     -846.911     216.186    -897.990
  C     -845.801     216.263    -897.330
  N     -845.404     217.566    -897.100
  O     -844.099     213.139    -892.210
  O     -845.828     212.982    -894.160
  H     -843.369     220.421    -896.000
  H     -845.861     212.988    -895.130
  H     -847.434     221.213    -898.680
  H     -845.203     215.416    -896.970
  H     -843.612     218.553    -897.270
  H     -845.281     219.440    -895.160
  H     -845.094     217.359    -893.940
  H     -842.074     217.446    -894.600
  H     -842.264     214.980    -894.610
  H     -850.051     217.800    -900.000
  H     -849.306     216.315    -899.450
  H     -842.700     215.653    -893.020
  P     -844.596     219.486    -892.050
  C     -842.774     221.285    -891.690
  O     -844.034     220.956    -892.290
  O     -844.737     219.092    -890.610
  O     -845.996     219.479    -892.830
  H     -846.711     219.817    -892.250
  H     -842.518     222.296    -891.930
  H     -842.018     220.627    -892.064
  H     -842.846     221.178    -890.628

 6  7  8  9  10  11  12  13  14  15  25  28  32  33  34  35 0
 6-311+G(2d,p)
 ****
 36  39  40 0
 6-311+G(2d,p)
 ****
 1  2  3  4  5  16  17  18  19  20  21  22  23  24 0
 3-21G
 ****
 26  27  29  30  31  37  38  41  42  43  44  45  46  47 0
 3-21G
 ****
 48 0
 3-21G
 ****


