%nproc=1
%NoSave
%Mem=1900MB
#P OB98/GEN NMR

erre ene a

0 1
  C      604.966     109.190     522.739
  O      606.091     108.432     523.159
  P      607.367     108.214     522.205
  C      607.052     105.654     521.993
  O      607.025     106.910     521.337
  C      608.109     104.750     521.351
  O      608.343     103.624     522.247
  C      607.704     104.176     519.986
  O      608.899     104.086     519.205
  C      607.182     102.789     520.337
  O      607.218     101.898     519.229
  C      608.125     102.412     521.488
  N      607.575     101.356     522.340
  C      608.007     100.053     522.109
  O      608.810      99.797     521.211
  N      607.524      99.041     522.918
  C      606.615      99.308     523.810
  N      606.215      98.295     524.615
  C      606.056     100.662     524.009
  C      606.591     101.626     523.261
  O      608.678     108.180     522.911
  O      607.242     109.378     521.114
  H      606.762     101.074     519.484
  H      607.644     110.238     521.419
  H      605.282     100.830     524.745
  H      606.251     102.658     523.354
  H      609.104     102.100     521.096
  H      606.143     102.867     520.683
  H      606.976     104.798     519.469
  H      609.045     105.305     521.277
  H      606.751      97.442     524.575
  H      606.070     105.186     521.889
  H      605.785      98.483     525.520
  H      607.254     105.804     523.060
  P      608.758     104.074     517.597
  C      609.977     101.842     517.059
  O      608.749     102.540     517.109
  O      610.218     104.566     517.144
  O      607.714     104.975     517.021
  H      610.148     104.980     516.267
  H      609.777     100.821     516.713
  H      610.428     101.783     518.061
  H      610.667     102.319     516.357
  H      604.236     109.209     523.521
  H      604.541     108.743     521.865
  H      605.273     110.190     522.514

 3  4  5  6  7  8  9  10  11  12  13  23  27  28  29  30  32 0
 6-311+G(2d,p)
 ****
 34  35 0
 6-311+G(2d,p)
 ****
 1  2  14  15  16  17  18  19  20  21  22  24  25  26 0
 3-21G
 ****
 31  33  36  37  38  39  40  41  42  43  44  45  46 0
 3-21G
 ****


