%nproc=1
%NoSave
%Mem=1900MB
#P OB98/GEN NMR

erre ene a

0 1
  C        4.069      11.226    -232.044
  O        4.300       9.994    -232.701
  P        4.756       8.700    -231.872
  C        7.249       8.037    -231.944
  O        6.287       8.975    -231.465
  C        7.678       8.382    -233.371
  O        8.245       9.706    -233.423
  C        8.741       7.451    -233.942
  O        8.166       6.223    -234.343
  C        9.291       8.298    -235.082
  O        8.466       8.195    -236.252
  C        9.221       9.724    -234.489
  N       10.517      10.199    -234.030
  C       10.930      11.437    -234.536
  O       10.229      12.043    -235.346
  N       12.154      11.934    -234.148
  C       12.902      11.241    -233.347
  N       14.107      11.780    -233.008
  C       12.518       9.918    -232.816
  C       11.325       9.462    -233.197
  O        4.494       7.392    -232.537
  O        3.984       8.872    -230.478
  H        7.539       8.251    -235.940
  H        3.019       8.669    -230.573
  H       13.181       9.375    -232.160
  H       10.966       8.498    -232.855
  H        8.843      10.432    -235.241
  H       10.301       7.991    -235.373
  H        9.529       7.287    -233.195
  H        6.783       8.368    -234.009
  H       14.345      12.676    -233.419
  H        6.793       7.043    -231.934
  H       14.778      11.311    -232.422
  H        8.112       8.028    -231.270
  P        9.109       4.993    -234.747
  C        9.242       4.284    -237.210
  O        9.625       5.245    -236.244
  O        8.541       3.637    -234.488
  O       10.427       5.232    -233.867
  H       10.709       4.382    -233.481
  H        9.356       4.724    -238.205
  H        8.199       3.983    -237.075
  H        9.889       3.408    -237.132
  H        3.775      11.963    -232.762
  H        4.966      11.543    -231.554
  H        3.291      11.103    -231.319

 3  4  5  6  7  8  9  10  11  12  13  23  27  28  29  30  32 0
 6-311+G(2d,p)
 ****
 34  35 0
 6-311+G(2d,p)
 ****
 1  2  14  15  16  17  18  19  20  21  22  24  25  26 0
 3-21G
 ****
 31  33  36  37  38  39  40  41  42  43  44  45  46 0
 3-21G
 ****


