%nproc=1
%NoSave
%Mem=1900MB
#P OB98/GEN NMR

erre ene a

0 1
  C      272.036     121.125     -92.268
  O      273.357     121.258     -91.786
  H      271.344     121.349     -91.450
  H      271.858     120.101     -92.605
  H      271.846     121.825     -93.085
  P      274.571     121.150     -92.827
  C      274.504     118.649     -92.201
  O      274.695     119.605     -93.238
  C      274.599     117.237     -92.772
  O      273.736     117.110     -93.923
  C      275.991     116.865     -93.264
  O      276.867     116.581     -92.190
  C      275.670     115.684     -94.164
  O      275.518     114.479     -93.404
  C      274.321     116.108     -94.789
  N      274.481     116.614     -96.151
  C      274.023     115.788     -97.171
  O      273.498     114.694     -96.974
  N      274.242     116.237     -98.445
  C      274.984     117.334     -98.784
  O      275.363     117.560     -99.930
  C      275.387     118.200     -97.668
  C      275.134     117.803     -96.420
  O      275.847     121.799     -92.403
  O      273.987     121.826     -94.157
  H      274.343     122.731     -94.239
  H      274.900     114.698     -92.677
  H      273.949     115.622     -99.191
  H      275.916     119.118     -97.900
  H      275.453     118.408     -95.576
  H      273.625     115.263     -94.807
  H      276.458     115.515     -94.903
  H      276.397     117.677     -93.878
  H      274.253     116.529     -92.007
  H      273.510     118.800     -91.764
  H      275.261     118.807     -91.425
  P      278.315     117.260     -92.125
  C      279.532     115.398     -93.416
  O      279.155     116.772     -93.400
  O      279.024     117.124     -90.820
  O      278.035     118.803     -92.458
  H      278.467     119.354     -91.777
  H      280.084     115.190     -94.309
  H      278.654     114.787     -93.389
  H      280.141     115.185     -92.562

 6  7  8  9  10  11  12  13  14  15  16  27  31  32  33  34  35 0
 6-311+G(2d,p)
 ****
 36  37 0
 6-311+G(2d,p)
 ****
 1  2  3  4  5  17  18  19  20  21  22  23  24  25 0
 3-21G
 ****
 26  28  29  30  38  39  40  41  42  43  44  45 0
 3-21G
 ****


