%nproc=1
%NoSave
%Mem=1900MB
#P OB98/GEN NMR

erre ene a

0 1
  C      -32.323     616.814     500.440
  O      -31.405     617.864     500.676
  P      -31.304     619.029     499.569
  C      -29.053     620.043     500.407
  O      -30.449     620.219     500.239
  C      -28.448     621.232     501.144
  O      -28.589     622.434     500.364
  C      -29.107     621.551     502.478
  O      -28.636     620.712     503.527
  C      -28.662     622.979     502.697
  O      -27.320     622.993     503.220
  C      -28.701     623.558     501.268
  N      -30.854     628.132     501.113
  C      -29.528     627.794     501.249
  N      -28.655     628.820     501.423
  N      -29.086     626.560     501.210
  C      -30.073     625.641     501.040
  C      -31.429     625.857     500.886
  C      -31.904     627.227     500.930
  O      -33.075     627.603     500.878
  N      -32.111     624.675     500.724
  C      -31.179     623.761     500.777
  N      -29.940     624.285     501.008
  O      -32.796     619.629     499.519
  O      -30.846     618.574     498.211
  H      -26.970     623.899     503.082
  H      -32.921     620.150     498.696
  H      -31.145     629.106     501.148
  H      -31.379     622.696     500.662
  H      -27.859     624.219     501.081
  H      -29.284     623.513     503.434
  H      -28.940     629.777     501.520
  H      -30.200     621.521     502.403
  H      -27.680     628.577     501.591
  H      -27.372     621.041     501.266
  H      -28.578     619.922     499.414
  H      -28.878     619.104     500.971
  P      -29.735     619.827     504.294
  C      -27.871     619.120     505.952
  O      -28.903     618.711     505.103
  O      -30.436     619.002     503.119
  O      -30.724     620.621     505.089
  H      -31.341     618.739     503.363
  H      -27.574     618.268     506.597
  H      -28.172     619.963     506.594
  H      -26.978     619.421     505.374
  H      -32.284     616.117     501.251
  H      -32.068     616.315     499.528
  H      -33.312     617.215     500.362

 3  4  5  6  7  8  9  10  11  12  23  26  30  31 0
 6-311+G(2d,p)
 ****
 33  35  36  37  38 0
 6-311+G(2d,p)
 ****
 1  2  13  14  15  16  17  18  19  20  21  22  24  25 0
 3-21G
 ****
 27  28  29  32  34  39  40  41  42  43  44  45  46  47  48  49 0
 3-21G
 ****


