%nproc=1
%NoSave
%Mem=1900MB
#P OB98/GEN NMR

erre ene a

0 1
  C      -71.924      91.469    -104.678
  O      -71.053      92.581    -104.612
  P      -71.610      94.070    -104.406
  C      -69.570      95.224    -103.345
  O      -70.330      95.035    -104.529
  C      -68.125      95.608    -103.667
  O      -67.377      94.419    -104.047
  C      -67.973      96.632    -104.801
  O      -66.834      97.434    -104.470
  C      -67.674      95.751    -105.999
  O      -67.069      96.465    -107.071
  C      -66.802      94.668    -105.348
  N      -66.738      93.457    -106.161
  C      -65.779      93.435    -107.181
  O      -65.094      94.433    -107.408
  N      -65.659      92.307    -107.954
  C      -66.492      91.327    -107.786
  N      -66.322      90.231    -108.577
  C      -67.598      91.360    -106.808
  C      -67.651      92.437    -106.026
  O      -72.436      94.279    -103.183
  O      -72.397      94.371    -105.766
  H      -66.711      95.813    -107.713
  H      -73.278      93.917    -105.764
  H      -68.300      90.546    -106.746
  H      -68.424      92.553    -105.279
  H      -65.781      95.035    -105.192
  H      -68.606      95.313    -106.376
  H      -68.856      97.258    -104.947
  H      -67.668      95.998    -102.748
  H      -65.542      90.243    -109.223
  H      -69.567      94.280    -102.790
  H      -66.861      89.387    -108.472
  H      -70.043      95.982    -102.713
  P      -66.869      99.029    -104.609
  C      -66.614      99.382    -102.085
  O      -66.055      99.624    -103.364
  O      -68.229      99.617    -104.807
  O      -65.910      99.344    -105.854
  H      -66.068     100.254    -106.166
  H      -65.853      99.577    -101.322
  H      -66.950      98.345    -101.994
  H      -67.460     100.052    -101.920
  H      -71.352      90.576    -104.818
  H      -72.599      91.593    -105.499
  H      -72.480      91.397    -103.767

 3  4  5  6  7  8  9  10  11  12  13  23  27  28  29  30  32 0
 6-311+G(2d,p)
 ****
 34  35 0
 6-311+G(2d,p)
 ****
 1  2  14  15  16  17  18  19  20  21  22  24  25  26 0
 3-21G
 ****
 31  33  36  37  38  39  40  41  42  43  44  45  46 0
 3-21G
 ****


