%nproc=1
%NoSave
%Mem=1900MB
#P OB98/GEN NMR

erre ene a

0 1
  C       62.573      82.094      11.545
  O       62.361      81.190      12.611
  H       62.017      83.013      11.748
  H       62.215      81.665      10.606
  H       63.636      82.334      11.460
  P       63.015      79.731      12.447
  C       60.645      79.081      11.572
  O       61.743      78.752      12.410
  C       59.341      78.671      12.247
  O       58.206      79.066      11.447
  C       59.191      77.167      12.450
  O       59.927      76.683      13.561
  C       57.694      77.070      12.678
  O       57.379      77.515      14.011
  C       57.166      78.067      11.621
  N       56.844      77.431      10.342
  C       55.499      77.113      10.120
  O       54.649      77.355      10.974
  N       55.151      76.495       8.942
  C       56.062      76.227       8.059
  N       55.664      75.602       6.918
  C       57.486      76.560       8.245
  C       57.803      77.151       9.394
  O       63.640      79.434      13.892
  O       63.973      79.565      11.316
  H       56.409      77.607      14.056
  H       63.960      78.501      13.932
  H       58.211      76.307       7.484
  H       58.832      77.423       9.602
  H       56.272      78.588      11.986
  H       57.310      76.053      12.579
  H       59.443      76.610      11.541
  H       59.270      79.210      13.202
  H       54.692      75.331       6.846
  H       60.763      78.550      10.622
  H       56.319      75.195       6.262
  H       60.630      80.159      11.379
  P       61.081      75.602      13.276
  C       59.942      73.507      14.304
  O       60.967      74.483      14.420
  O       62.416      76.390      13.665
  O       61.125      75.081      11.874
  H       63.143      76.178      13.050
  H       59.994      72.835      15.135
  H       60.072      72.959      13.394
  H       58.988      73.991      14.295

 6  7  8  9  10  11  12  13  14  15  16  26  30  31  32  33  35 0
 6-311+G(2d,p)
 ****
 37  38 0
 6-311+G(2d,p)
 ****
 1  2  3  4  5  17  18  19  20  21  22  23  24  25 0
 3-21G
 ****
 27  28  29  34  36  39  40  41  42  43  44  45  46 0
 3-21G
 ****


