%nproc=1
%NoSave
%Mem=1900MB
#P OB98/GEN NMR

erre ene a

0 1
  C     -130.525     269.470     -64.474
  O     -129.573     268.650     -65.172
  P     -128.372     269.356     -65.972
  C     -129.371     269.096     -68.377
  O     -128.955     269.968     -67.337
  C     -130.239     269.855     -69.388
  O     -131.423     270.379     -68.747
  C     -129.556     271.066     -70.012
  O     -128.626     270.692     -71.015
  C     -130.755     271.836     -70.557
  O     -131.166     271.316     -71.832
  C     -131.826     271.553     -69.483
  N     -132.049     272.689     -68.596
  C     -132.980     273.632     -69.021
  O     -133.556     273.569     -70.104
  N     -133.207     274.677     -68.164
  C     -132.555     274.902     -66.986
  O     -132.787     275.868     -66.272
  C     -131.523     273.918     -66.629
  C     -131.320     272.877     -67.443
  O     -127.541     268.093     -66.508
  O     -127.498     270.262     -65.169
  H     -130.357     271.234     -72.374
  H     -126.604     268.342     -66.615
  H     -133.899     275.353     -68.438
  H     -130.967     274.072     -65.715
  H     -130.559     272.140     -67.191
  H     -132.780     271.293     -69.962
  H     -130.539     272.900     -70.694
  H     -129.070     271.663     -69.233
  H     -130.556     269.149     -70.167
  H     -129.954     268.277     -67.951
  H     -128.484     268.680     -68.867
  P     -127.070     270.877     -70.658
  C     -126.846     272.771     -72.447
  O     -126.712     272.375     -71.099
  O     -126.391     269.940     -71.767
  O     -126.746     270.508     -69.250
  H     -126.891     269.942     -72.601
  H     -127.676     272.254     -72.939
  H     -125.914     272.553     -72.981
  H     -127.029     273.848     -72.482
  H     -131.252     268.846     -63.999
  H     -131.013     270.121     -65.169
  H     -130.018     270.054     -63.734

 3  4  5  6  7  8  9  10  11  12  13  23  28  29  30  31  32 0
 6-311+G(2d,p)
 ****
 33  34 0
 6-311+G(2d,p)
 ****
 1  2  14  15  16  17  18  19  20  21  22  24  25  26 0
 3-21G
 ****
 27  35  36  37  38  39  40  41  42  43  44  45 0
 3-21G
 ****


