%nproc=1
%NoSave
%Mem=1900MB
#P OB98/GEN NMR

erre ene a

0 1
  C       67.700      96.109      29.914
  O       67.202      97.244      29.200
  P       67.844      97.505      27.752
  C       69.411      99.285      28.795
  O       69.306      98.137      27.966
  C       70.676     100.091      28.477
  O       71.860      99.243      28.519
  C       70.652     100.758      27.097
  O       71.353     102.002      27.221
  C       71.479      99.807      26.251
  O       71.944     100.434      25.059
  C       72.557      99.427      27.265
  N       76.631      97.706      24.832
  C       76.118      98.986      24.914
  N       76.823      99.960      24.300
  N       75.013      99.286      25.546
  C       74.436      98.216      26.148
  C       74.854      96.906      26.151
  C       76.061      96.584      25.421
  O       76.560      95.470      25.320
  N       74.017      96.112      26.902
  C       73.062      96.942      27.288
  N       73.299      98.233      26.905
  O       66.978      98.724      27.184
  O       67.790      96.317      26.850
  H       72.559      99.809      24.618
  H       66.304      98.395      26.560
  H       77.477      97.530      24.317
  H       72.196      96.665      27.865
  H       73.301     100.224      27.399
  H       70.880      98.932      25.970
  H       77.708      99.807      23.838
  H       69.651     100.926      26.690
  H       76.492     100.913      24.379
  H       70.796     100.857      29.254
  H       69.434      98.986      29.845
  H       68.511      99.898      28.673
  P       70.530     103.277      27.729
  C       70.169     104.035      25.282
  O       69.576     103.741      26.530
  O       71.643     104.428      27.787
  O       69.871     103.105      29.059
  H       71.490     104.992      28.568
  H       69.430     103.873      24.493
  H       71.039     103.403      25.085
  H       70.477     105.084      25.266
  H       67.203      96.036      30.859
  H       68.752      96.221      30.073
  H       67.517      95.221      29.345

 3  4  5  6  7  8  9  10  11  12  23  26  30  31 0
 6-311+G(2d,p)
 ****
 33  35  36  37  38 0
 6-311+G(2d,p)
 ****
 1  2  13  14  15  16  17  18  19  20  21  22  24  25 0
 3-21G
 ****
 27  28  29  32  34  39  40  41  42  43  44  45  46  47  48  49 0
 3-21G
 ****


