%nproc=1
%NoSave
%Mem=1900MB
#P OB98/GEN NMR

erre ene a

0 1
  C     -519.833    -287.299     928.425
  O     -519.887    -288.620     927.913
  H     -520.427    -287.259     929.347
  H     -520.245    -286.592     927.704
  H     -518.801    -287.034     928.658
  P     -519.160    -288.865     926.495
  C     -521.507    -288.616     925.366
  O     -520.342    -289.426     925.558
  C     -522.150    -288.960     924.033
  O     -521.212    -288.773     922.948
  C     -522.630    -290.411     923.901
  O     -523.856    -290.656     924.586
  C     -522.790    -290.497     922.389
  O     -523.981    -289.789     921.992
  C     -521.518    -289.768     921.919
  N     -520.384    -290.670     921.712
  C     -520.424    -291.502     920.595
  O     -521.386    -291.469     919.822
  N     -519.401    -292.383     920.380
  C     -518.386    -292.417     921.206
  N     -517.399    -293.314     920.934
  C     -518.278    -291.541     922.390
  C     -519.302    -290.698     922.573
  O     -518.273    -290.176     926.759
  O     -518.407    -287.706     925.941
  H     -523.913    -288.897     922.376
  H     -517.894    -290.504     925.907
  H     -517.427    -291.611     923.042
  H     -519.292    -290.023     923.427
  H     -521.697    -289.217     920.976
  H     -522.893    -291.519     922.034
  H     -521.860    -291.113     924.227
  H     -522.983    -288.241     923.872
  H     -517.517    -293.936     920.146
  H     -521.191    -287.567     925.374
  H     -516.649    -293.523     921.591
  H     -522.225    -288.792     926.175
  P     -523.930    -291.968     925.508
  C     -523.935    -293.904     923.762
  O     -524.696    -293.093     924.650
  O     -524.990    -291.563     926.624
  O     -522.625    -292.396     926.095
  H     -524.761    -291.975     927.483
  H     -524.583    -294.598     923.269
  H     -523.193    -294.441     924.316
  H     -523.456    -293.283     923.034

 6  7  8  9  10  11  12  13  14  15  16  26  30  31  32  33  35 0
 6-311+G(2d,p)
 ****
 37  38 0
 6-311+G(2d,p)
 ****
 1  2  3  4  5  17  18  19  20  21  22  23  24  25 0
 3-21G
 ****
 27  28  29  34  36  39  40  41  42  43  44  45  46 0
 3-21G
 ****


