%nproc=1
%NoSave
%Mem=1900MB
#P OB98/GEN NMR

erre ene a

0 1
  C       72.848     -56.599    -151.552
  O       72.318     -57.865    -151.222
  H       72.145     -55.826    -151.228
  H       72.983     -56.519    -152.634
  H       73.804     -56.444    -151.044
  P       73.199     -59.147    -151.620
  C       71.431     -59.745    -153.422
  O       72.803     -59.508    -153.137
  C       71.271     -60.336    -154.824
  O       71.771     -59.377    -155.799
  C       72.038     -61.653    -155.034
  O       71.252     -62.516    -155.863
  C       73.269     -61.212    -155.808
  O       73.846     -62.279    -156.554
  C       72.681     -60.090    -156.660
  N       75.368     -59.018    -160.781
  C       74.360     -59.944    -160.583
  N       74.015     -60.706    -161.642
  N       73.746     -60.109    -159.440
  C       74.174     -59.261    -158.473
  C       75.167     -58.312    -158.540
  C       75.854     -58.153    -159.804
  O       76.770     -57.368    -160.035
  N       75.328     -57.681    -157.329
  C       74.435     -58.247    -156.536
  N       73.709     -59.209    -157.187
  O       72.535     -60.334    -150.774
  O       74.664     -59.024    -151.366
  H       73.190     -62.564    -157.226
  H       73.200     -61.012    -150.546
  H       75.814     -58.938    -161.679
  H       74.276     -58.002    -155.495
  H       72.116     -60.471    -157.521
  H       74.029     -60.823    -155.120
  H       74.420     -60.614    -162.561
  H       72.290     -62.164    -154.102
  H       73.268     -61.383    -161.522
  H       70.202     -60.467    -155.030
  H       70.885     -58.796    -153.363
  H       71.023     -60.440    -152.680
  P       70.770     -63.911    -155.234
  C       73.027     -65.181    -155.406
  O       72.032     -64.634    -154.553
  O       70.482     -64.808    -156.530
  O       69.554     -63.799    -154.374
  H       69.521     -64.929    -156.640
  H       73.799     -65.626    -154.814
  H       73.445     -64.404    -156.011
  H       72.587     -65.925    -156.036

 6  7  8  9  10  11  12  13  14  15  26  29  33  34 0
 6-311+G(2d,p)
 ****
 36  38  39  40  41 0
 6-311+G(2d,p)
 ****
 1  2  3  4  5  16  17  18  19  20  21  22  23  24  25 0
 3-21G
 ****
 27  28  30  31  32  35  37  42  43  44  45  46  47 0
 3-21G
 ****
 48  49 0
 3-21G
 ****


