%nproc=1
%NoSave
%Mem=1900MB
#P OB98/GEN NMR

erre ene a

0 1
  C       -6.837     776.548     397.224
  O       -5.449     776.643     396.963
  H       -7.153     777.441     397.768
  H       -7.048     775.667     397.831
  H       -7.397     776.495     396.280
  P       -4.787     775.435     396.143
  C       -3.064     775.261     394.199
  O       -3.901     776.106     394.975
  C       -2.603     776.009     392.955
  O       -3.679     776.094     392.004
  C       -2.191     777.450     393.216
  O       -0.881     777.546     393.776
  C       -2.295     778.040     391.817
  O       -1.112     777.789     391.051
  C       -3.492     777.300     391.225
  N       -6.843     779.815     388.306
  C       -5.794     779.041     388.002
  N       -4.947     778.387     388.840
  C       -5.309     778.592     390.113
  C       -6.368     779.353     390.582
  C       -7.165     779.997     389.619
  N       -8.217     780.809     389.934
  N       -6.388     779.349     391.966
  C       -5.384     778.585     392.324
  N       -4.696     778.106     391.243
  O       -6.029     774.799     395.360
  O       -4.074     774.423     396.974
  H       -1.065     776.819     390.925
  H       -6.347     774.006     395.833
  H       -5.576     778.927     386.938
  H       -5.098     778.372     393.355
  H       -3.323     776.997     390.185
  H       -2.437     779.129     391.874
  H       -2.928     777.952     393.874
  H       -1.773     775.452     392.487
  H       -3.625     774.373     393.898
  H       -2.205     774.951     394.811
  H       -8.702     781.281     389.187
  H       -8.391     781.033     390.901
  P       -0.255     779.011     393.937
  C        1.644     780.059     395.397
  O        0.811     778.941     395.132
  O       -1.455     779.878     394.564
  O        0.268     779.612     392.683
  H       -1.415     780.795     394.211
  H        2.288     779.836     396.222
  H        1.037     780.907     395.637
  H        2.235     780.277     394.532

 6  7  8  9  10  11  12  13  14  15  25  28  32  33  34  35 0
 6-311+G(2d,p)
 ****
 36  37  40 0
 6-311+G(2d,p)
 ****
 1  2  3  4  5  16  17  18  19  20  21  22  23  24 0
 3-21G
 ****
 26  27  29  30  31  38  39 41  42  43  44  45  46  47  48 0
 3-21G
 ****


