%nproc=1
%NoSave
%Mem=1900MB
#P OB98/GEN NMR

erre ene a

0 1
  C     -157.205     534.197    -224.339
  O     -155.792     534.139    -224.268
  P     -155.039     534.530    -222.909
  C     -154.321     532.091    -222.350
  O     -155.064     533.229    -221.972
  C     -153.990     531.215    -221.136
  O     -153.111     531.973    -220.270
  C     -155.192     530.829    -220.276
  O     -154.826     529.712    -219.462
  C     -155.359     532.058    -219.411
  O     -156.110     531.786    -218.229
  C     -153.893     532.506    -219.176
  N     -153.778     533.975    -219.130
  C     -153.862     534.575    -217.879
  O     -153.949     533.934    -216.833
  N     -153.930     535.942    -217.878
  C     -153.968     536.733    -218.987
  O     -154.333     537.903    -218.982
  C     -153.638     536.063    -220.255
  C     -153.585     534.729    -220.274
  O     -156.075     535.527    -222.206
  O     -153.701     535.155    -223.091
  H     -156.457     532.653    -217.909
  H     -155.832     536.452    -222.394
  H     -154.135     536.370    -216.980
  H     -153.508     536.674    -221.137
  H     -153.395     534.204    -221.204
  H     -153.499     532.107    -218.233
  H     -155.899     532.825    -219.975
  H     -156.099     530.604    -220.847
  H     -153.453     530.321    -221.468
  H     -153.407     532.408    -222.859
  H     -154.889     531.492    -223.076
  P     -155.990     528.704    -219.009
  C     -156.067     527.318    -221.166
  O     -156.742     528.252    -220.347
  O     -156.872     529.182    -217.902
  O     -155.180     527.385    -218.594
  H     -155.738     526.819    -218.030
  H     -156.808     526.718    -221.702
  H     -155.433     526.650    -220.572
  H     -155.450     527.853    -221.891
  H     -157.525     533.903    -225.317
  H     -157.531     535.197    -224.142
  H     -157.626     533.535    -223.612

 3  4  5  6  7  8  9  10  11  12  13  23  28  29  30  31  32 0
 6-311+G(2d,p)
 ****
 33  34 0
 6-311+G(2d,p)
 ****
 1  2  14  15  16  17  18  19  20  21  22  24  25  26  27 0
 3-21G
 ****
 35  36  37  38  39  40  41  42  43  44  45 0
 3-21G
 ****


