%nproc=1
%NoSave
%Mem=1900MB
#P OB98/GEN NMR

erre ene a

0 1
  C       76.661     -10.082     137.548
  O       75.984      -8.858     137.747
  H       76.604     -10.349     136.489
  H       76.174     -10.866     138.133
  H       77.714     -10.000     137.837
  P       76.267      -8.077     139.119
  C       74.657      -9.719     140.324
  O       75.937      -9.105     140.311
  C       74.467     -10.524     141.609
  O       74.102      -9.606     142.685
  C       73.366     -11.597     141.522
  O       73.778     -12.743     142.280
  C       72.201     -10.944     142.242
  O       71.274     -11.897     142.747
  C       72.939     -10.161     143.325
  N       69.361      -9.410     146.763
  C       70.165     -10.508     146.529
  N       69.947     -11.603     147.287
  N       71.106     -10.533     145.622
  C       71.232      -9.366     144.946
  C       70.499      -8.214     145.078
  C       69.447      -8.202     146.072
  O       68.688      -7.268     146.313
  N       70.895      -7.270     144.160
  C       71.852      -7.862     143.465
  N       72.090      -9.136     143.903
  O       75.058      -7.028     139.180
  O       77.595      -7.402     139.207
  H       70.657     -11.435     143.350
  H       75.344      -6.172     138.809
  H       68.639      -9.448     147.461
  H       72.382      -7.423     142.632
  H       73.274     -10.802     144.151
  H       71.670     -10.268     141.558
  H       69.262     -11.649     148.027
  H       73.123     -11.901     140.499
  H       70.556     -12.402     147.155
  H       75.426     -10.977     141.886
  H       74.572     -10.392     139.464
  H       73.886      -8.945     140.241
  P       74.443     -13.970     141.493
  C       72.182     -15.260     141.484
  O       73.286     -14.776     140.730
  O       74.869     -14.967     142.673
  O       75.616     -13.585     140.652
  H       75.695     -15.428     142.432
  H       71.503     -15.772     140.834
  H       71.679     -14.438     141.949
  H       72.533     -15.935     142.237

 6  7  8  9  10  11  12  13  14  15  26  29  33  34 0
 6-311+G(2d,p)
 ****
 36  38  39  40  41 0
 6-311+G(2d,p)
 ****
 1  2  3  4  5  16  17  18  19  20  21  22  23  24  25 0
 3-21G
 ****
 27  28  30  31  32  35  37  42  43  44  45  46  47 0
 3-21G
 ****
 48  49 0
 3-21G
 ****


