%nproc=1
%NoSave
%Mem=1900MB
#P OB98/GEN NMR

erre ene a

0 1
  C      104.791     274.824     111.759
  O      104.138     273.579     111.861
  P      103.707     272.997     113.292
  C      106.232     272.511     113.419
  O      105.060     272.863     114.147
  C      107.027     271.458     114.184
  O      107.510     271.983     115.448
  C      106.220     270.228     114.573
  O      105.755     269.400     113.530
  C      107.128     269.592     115.612
  O      108.172     268.837     114.999
  C      107.709     270.842     116.321
  N      107.106     271.053     117.636
  C      107.306     270.040     118.565
  O      107.944     269.015     118.331
  N      106.716     270.224     119.786
  C      105.923     271.277     120.143
  O      105.388     271.357     121.240
  C      105.735     272.309     119.113
  C      106.325     272.154     117.924
  O      102.874     271.761     113.249
  O      102.986     274.245     113.992
  H      108.744     268.492     115.713
  H      103.549     275.032     114.101
  H      106.836     269.495     120.471
  H      105.123     273.163     119.368
  H      106.199     272.902     117.147
  H      108.792     270.735     116.454
  H      106.579     268.910     116.270
  H      105.319     270.567     115.101
  H      107.907     271.192     113.589
  H      106.853     273.403     113.291
  H      105.949     272.153     112.424
  P      104.585     268.321     113.716
  C      106.237     266.435     114.373
  O      105.099     267.190     114.728
  O      103.887     267.871     112.476
  O      103.544     269.134     114.633
  H      102.639     268.835     114.424
  H      106.417     265.685     115.148
  H      107.117     267.080     114.300
  H      106.074     265.918     113.422
  H      104.995     275.037     110.730
  H      105.711     274.790     112.305
  H      104.164     275.590     112.164

 3  4  5  6  7  8  9  10  11  12  13  23  28  29  30  31  32 0
 6-311+G(2d,p)
 ****
 33  34 0
 6-311+G(2d,p)
 ****
 1  2  14  15  16  17  18  19  20  21  22  24  25  26  27 0
 3-21G
 ****
 35  36  37  38  39  40  41  42  43  44  45 0
 3-21G
 ****


