%nproc=1
%NoSave
%Mem=1900MB
#P OB98/GEN NMR

erre ene a

0 1
  C     -939.497     948.738    -103.906
  O     -938.466     948.242    -104.746
  H     -939.307     948.386    -102.882
  H     -940.468     948.361    -104.244
  H     -939.499     949.839    -103.901
  P     -938.455     948.786    -106.257
  C     -935.831     948.801    -106.124
  O     -937.003     948.459    -106.866
  C     -934.592     948.317    -106.896
  O     -934.545     948.880    -108.215
  C     -933.275     948.775    -106.269
  O     -932.973     948.112    -105.044
  C     -932.308     948.465    -107.393
  O     -931.988     947.066    -107.420
  C     -933.156     948.868    -108.628
  N     -932.741     950.141    -109.195
  C     -931.534     950.146    -109.887
  O     -930.880     949.099    -109.993
  N     -931.059     951.329    -110.421
  C     -931.756     952.399    -110.283
  N     -931.252     953.544    -110.814
  C     -933.069     952.444    -109.612
  C     -933.497     951.298    -109.073
  O     -938.414     950.383    -106.059
  O     -939.579     948.297    -107.120
  H     -931.486     946.925    -108.244
  H     -937.688     950.678    -105.482
  H     -933.623     953.385    -109.523
  H     -934.426     951.236    -108.545
  H     -933.058     948.096    -109.434
  H     -931.365     949.014    -107.301
  H     -933.288     949.864    -106.128
  H     -934.636     947.242    -106.973
  H     -930.340     953.492    -111.267
  H     -935.854     948.347    -105.124
  H     -931.677     954.456    -110.754
  H     -935.818     949.884    -106.030
  P     -932.758     948.938    -103.704
  C     -933.145     946.722    -102.461
  O     -932.316     947.869    -102.589
  O     -933.895     949.844    -103.279
  O     -931.386     949.715    -103.975
  H     -930.619     949.151    -104.150
  H     -932.757     946.085    -101.694
  H     -933.165     946.191    -103.390
  H     -934.138     947.026    -102.203

 6  7  8  9  10  11  12  13  14  15  16  26  30  31  32  33  35 0
 6-311+G(2d,p)
 ****
 37  38 0
 6-311+G(2d,p)
 ****
 1  2  3  4  5  17  18  19  20  21  22  23  24  25 0
 3-21G
 ****
 27  28  29  34  36  39  40  41  42  43  44  45  46 0
 3-21G
 ****


