%nproc=1
%NoSave
%Mem=1900MB
#P OB98/GEN NMR

erre ene a

0 1
  C     -191.687     302.816     257.993
  O     -191.515     301.858     256.947
  P     -191.008     302.348     255.509
  C     -191.869     302.358     253.078
  O     -192.193     302.147     254.443
  C     -192.698     301.439     252.165
  O     -192.568     300.059     252.611
  C     -194.191     301.794     252.151
  O     -194.722     301.939     250.834
  C     -194.820     300.708     253.008
  O     -196.199     300.508     252.728
  C     -193.888     299.514     252.777
  N     -193.955     298.546     253.878
  C     -195.073     297.730     253.932
  O     -196.023     297.840     253.153
  N     -195.106     296.816     254.948
  C     -194.181     296.694     255.941
  O     -194.276     295.887     256.859
  C     -193.047     297.625     255.875
  C     -192.985     298.496     254.860
  O     -189.677     301.831     255.077
  O     -190.965     303.947     255.672
  H     -196.545     299.837     253.353
  H     -190.178     304.278     255.195
  H     -195.910     296.204     254.985
  H     -192.305     297.578     256.658
  H     -192.169     299.204     254.792
  H     -194.158     298.974     251.860
  H     -194.746     301.011     254.060
  H     -194.372     302.769     252.618
  H     -192.278     301.518     251.155
  H     -190.810     302.149     252.921
  H     -192.012     303.415     252.828
  P     -195.294     303.306     250.231
  C     -197.319     304.861     250.662
  O     -196.671     303.645     250.971
  O     -195.341     303.387     248.742
  O     -194.281     304.407     250.809
  H     -194.097     305.066     250.120
  H     -198.002     305.114     251.478
  H     -197.903     304.741     249.746
  H     -196.602     305.674     250.537
  H     -192.028     302.321     258.878
  H     -192.409     303.546     257.693
  H     -190.753     303.298     258.192

 3  4  5  6  7  8  9  10  11  12  13  23  28  29  30  31  32 0
 6-311+G(2d,p)
 ****
 33  34 0
 6-311+G(2d,p)
 ****
 1  2  14  15  16  17  18  19  20  21  22  24  25  26  27 0
 3-21G
 ****
 35  36  37  38  39  40  41  42  43  44  45 0
 3-21G
 ****


