%nproc=1
%NoSave
%Mem=1900MB
#P OB98/GEN NMR

erre ene a

0 1
  C       12.172      29.337    -112.764
  O       12.029      30.623    -113.325
  H       12.300      29.439    -111.684
  H       13.061      28.854    -113.179
  H       11.294      28.716    -112.956
  P       11.384      30.760    -114.781
  C       10.571      32.765    -116.188
  O       10.689      32.205    -114.887
  C        9.267      33.545    -116.351
  O        8.144      32.653    -116.182
  C        9.111      34.654    -115.308
  O        9.706      35.889    -115.669
  C        7.593      34.785    -115.211
  O        7.086      35.714    -116.183
  C        7.095      33.368    -115.513
  N        3.624      32.829    -111.799
  C        3.745      33.842    -112.731
  N        2.850      34.848    -112.631
  N        4.669      33.862    -113.656
  C        5.550      32.840    -113.567
  C        5.544      31.791    -112.675
  C        4.474      31.737    -111.702
  O        4.313      30.854    -110.866
  N        6.624      30.963    -112.863
  C        7.323      31.560    -113.806
  N        6.673      32.657    -114.320
  O       10.119      29.774    -114.722
  O       12.284      30.396    -115.922
  H        7.463      36.593    -115.985
  H        9.956      29.400    -115.607
  H        2.876      32.853    -111.130
  H        8.279      31.218    -114.186
  H        6.235      33.383    -116.194
  H        7.297      35.164    -114.230
  H        2.175      34.926    -111.889
  H        9.487      34.325    -114.335
  H        3.020      35.699    -113.171
  H        9.209      33.943    -117.372
  H       10.598      31.931    -116.890
  H       11.430      33.406    -116.406
  P        9.918      37.045    -114.587
  C       11.412      39.201    -114.693
  O       11.269      37.818    -114.933
  O       10.286      36.234    -113.259
  O        8.751      37.955    -114.382
  H        9.503      36.138    -112.685
  H       12.389      39.516    -114.995
  H       11.281      39.397    -113.649
  H       10.675      39.738    -115.253

 6  7  8  9  10  11  12  13  14  15  26  29  33  34 0
 6-311+G(2d,p)
 ****
 36  38  39  40  41 0
 6-311+G(2d,p)
 ****
 1  2  3  4  5  16  17  18  19  20  21  22  23  24  25 0
 3-21G
 ****
 27  28  30  31  32  35  37  42  43  44  45  46  47 0
 3-21G
 ****
 48  49 0
 3-21G
 ****


