%nproc=1
%NoSave
%Mem=1900MB
#P OB98/GEN NMR

erre ene a

0 1
  C      -30.696      13.981    -237.843
  O      -30.634      13.860    -239.253
  H      -30.264      13.081    -237.394
  H      -31.735      14.076    -237.521
  H      -30.121      14.853    -237.512
  P      -31.183      15.105    -240.101
  C      -29.274      16.837    -239.683
  O      -29.884      15.919    -240.583
  C      -27.831      17.121    -240.116
  O      -27.069      15.875    -240.055
  C      -27.715      17.646    -241.560
  O      -26.559      18.506    -241.637
  C      -27.437      16.367    -242.335
  O      -26.926      16.661    -243.614
  C      -26.490      15.673    -241.357
  N      -24.422      12.281    -244.563
  C      -24.341      13.632    -244.501
  N      -24.917      14.463    -243.609
  C      -25.614      13.766    -242.693
  C      -25.791      12.392    -242.629
  C      -25.158      11.631    -243.625
  N      -25.255      10.260    -243.709
  N      -26.603      12.055    -241.557
  C      -26.903      13.205    -240.985
  N      -26.328      14.264    -241.635
  O      -31.830      16.053    -238.984
  O      -32.152      14.771    -241.187
  H      -26.749      15.842    -244.118
  H      -32.785      15.850    -238.892
  H      -23.734      14.107    -245.270
  H      -27.533      13.336    -240.111
  H      -25.487      16.128    -241.359
  H      -28.355      15.786    -242.472
  H      -28.599      18.192    -241.898
  H      -27.366      17.813    -239.401
  H      -29.283      16.401    -238.679
  H      -29.842      17.772    -239.678
  H      -24.797       9.796    -244.476
  H      -25.828       9.770    -243.043
  P      -26.728      19.996    -242.222
  C      -27.178      21.819    -240.412
  O      -26.219      21.078    -241.154
  O      -28.320      20.191    -242.174
  O      -26.225      20.199    -243.618
  H      -28.630      20.575    -243.017
  H      -26.674      22.492    -239.750
  H      -27.786      21.147    -239.843
  H      -27.796      22.377    -241.084

 6  7  8  9  10  11  12  13  14  15  25  28  32  33  34  35 0
 6-311+G(2d,p)
 ****
 36  37  40 0
 6-311+G(2d,p)
 ****
 1  2  3  4  5  16  17  18  19  20  21  22  23  24 0
 3-21G
 ****
 26  27  29  30  31  38  39 41  42  43  44  45  46  47  48 0
 3-21G
 ****


