%nproc=1
%NoSave
%Mem=1900MB
#P OB98/GEN NMR

erre ene a

0 1
  C     -949.055    -296.747     -52.579
  O     -949.235    -295.548     -51.847
  P     -948.972    -295.600     -50.271
  C     -948.814    -293.039     -49.752
  O     -949.568    -294.244     -49.644
  C     -949.762    -291.845     -49.900
  O     -950.498    -291.949     -51.141
  C     -950.808    -291.763     -48.808
  O     -950.269    -291.211     -47.609
  C     -951.866    -290.864     -49.452
  O     -951.522    -289.488     -49.314
  C     -951.789    -291.312     -50.936
  N     -952.890    -292.178     -51.322
  C     -953.805    -291.641     -52.216
  O     -953.716    -290.489     -52.649
  N     -954.849    -292.454     -52.576
  C     -955.098    -293.714     -52.084
  O     -956.082    -294.374     -52.393
  C     -954.111    -294.223     -51.106
  C     -953.073    -293.443     -50.773
  O     -947.394    -295.413     -50.125
  O     -949.455    -296.841     -49.600
  H     -951.674    -289.255     -48.370
  H     -947.067    -295.947     -49.376
  H     -955.511    -292.093     -53.240
  H     -954.264    -295.205     -50.706
  H     -952.346    -293.784     -50.054
  H     -951.790    -290.424     -51.584
  H     -952.857    -291.000     -49.005
  H     -951.242    -292.749     -48.616
  H     -949.156    -290.930     -49.933
  H     -948.155    -293.103     -50.630
  H     -948.187    -292.932     -48.859
  P     -950.287    -292.151     -46.301
  C     -948.138    -291.382     -45.012
  O     -949.544    -291.297     -45.175
  O     -949.237    -293.278     -46.737
  O     -951.654    -292.676     -45.970
  H     -948.527    -292.933     -47.314
  H     -947.646    -291.499     -45.998
  H     -947.890    -292.229     -44.381
  H     -947.782    -290.470     -44.553
  H     -949.263    -296.568     -53.613
  H     -949.721    -297.496     -52.205
  H     -948.045    -297.082     -52.471

 3  4  5  6  7  8  9  10  11  12  13  23  28  29  30  31  32 0
 6-311+G(2d,p)
 ****
 33  34 0
 6-311+G(2d,p)
 ****
 1  2  14  15  16  17  18  19  20  21  22  24  25  26 0
 3-21G
 ****
 27  35  36  37  38  39  40  41  42  43  44  45 0
 3-21G
 ****


