%nproc=1
%NoSave
%Mem=1900MB
#P OB98/GEN NMR

erre ene a

0 1
  C       -4.657      47.019    -385.888
  O       -5.587      46.019    -385.504
  P       -5.422      45.385    -384.037
  C       -7.045      44.245    -382.350
  O       -6.801      44.647    -383.693
  C       -8.057      43.100    -382.319
  O       -9.306      43.529    -382.896
  C       -7.645      41.868    -383.113
  O       -6.662      41.114    -382.421
  C       -8.993      41.171    -383.263
  O       -9.327      40.478    -382.050
  C       -9.945      42.360    -383.474
  N      -13.104      41.330    -387.371
  C      -13.071      40.886    -386.097
  N      -12.187      41.188    -385.124
  C      -11.264      42.054    -385.576
  C      -11.158      42.577    -386.853
  C      -12.137      42.185    -387.779
  N      -12.163      42.639    -389.080
  N      -10.068      43.415    -386.950
  C       -9.530      43.407    -385.748
  N      -10.225      42.610    -384.878
  O       -5.439      46.666    -383.083
  O       -4.189      44.557    -383.845
  H       -8.569      39.900    -381.825
  H       -4.856      46.534    -382.310
  H      -13.862      40.193    -385.817
  H       -8.646      43.961    -385.460
  H      -10.910      42.225    -382.965
  H       -9.010      40.436    -384.077
  H       -7.263      42.158    -384.097
  H       -8.237      42.835    -381.268
  H       -7.449      45.089    -381.783
  H      -12.809      42.195    -389.716
  H      -11.364      43.160    -389.420
  H       -6.099      43.942    -381.892
  P       -5.777      40.089    -383.281
  C       -3.306      39.395    -383.197
  O       -4.338      40.131    -382.564
  O       -5.525      40.927    -384.620
  O       -6.378      38.739    -383.460
  H       -5.222      41.833    -384.431
  H       -2.375      39.549    -382.639
  H       -3.168      39.743    -384.223
  H       -3.546      38.328    -383.193
  H       -4.880      47.352    -386.880
  H       -3.667      46.614    -385.862
  H       -4.722      47.845    -385.211

 3  4  5  6  7  8  9  10  11  12  22  25  29  30  31  32 0
 6-311+G(2d,p)
 ****
 33  36  37 0
 6-311+G(2d,p)
 ****
 1  2  13  14  15  16  17  18  19  20  21  23  24  26 0
 3-21G
 ****
 27  28  34  35  38  39  40  41  42  43  44  45  46  47  48 0
 3-21G
 ****


