%nproc=1
%NoSave
%Mem=1900MB
#P OB98/GEN NMR

erre ene a

0 1
  C     -530.218    -192.545     165.408
  O     -529.144    -193.480     165.605
  P     -528.182    -193.991     164.426
  C     -529.897    -195.878     163.973
  O     -529.067    -194.869     163.411
  C     -530.191    -196.984     162.948
  O     -528.979    -197.743     162.687
  C     -531.198    -198.030     163.398
  O     -532.530    -197.544     163.383
  C     -530.935    -199.144     162.387
  O     -531.648    -198.917     161.155
  C     -529.416    -199.006     162.140
  N     -528.658    -200.111     162.712
  C     -528.789    -201.360     162.071
  O     -529.585    -201.494     161.136
  N     -528.032    -202.408     162.527
  C     -527.288    -202.260     163.585
  N     -526.552    -203.334     163.980
  C     -527.227    -201.007     164.360
  C     -527.927    -199.988     163.869
  O     -526.943    -194.679     164.901
  O     -527.812    -192.671     163.583
  H     -526.958    -192.803     163.133
  H     -532.596    -198.885     161.377
  H     -526.631    -200.946     165.265
  H     -527.936    -199.024     164.369
  H     -529.216    -198.956     161.064
  H     -531.244    -200.125     162.762
  H     -530.940    -198.384     164.402
  H     -530.512    -196.502     162.015
  H     -526.603    -204.176     163.421
  H     -530.845    -195.409     164.269
  H     -525.916    -203.311     164.769
  H     -529.413    -196.288     164.868
  P     -533.193    -197.217     164.814
  C     -534.220    -199.614     164.815
  O     -533.487    -198.624     165.528
  O     -534.656    -196.681     164.424
  O     -532.448    -196.228     165.636
  H     -534.902    -195.943     165.029
  H     -533.923    -200.599     165.197
  H     -534.015    -199.563     163.744
  H     -535.292    -199.475     164.996
  H     -530.709    -192.364     166.341
  H     -530.919    -192.950     164.709
  H     -529.825    -191.625     165.028

 3  4  5  6  7  8  9  10  11  12  13  24  27  28  29  30  32 0
 6-311+G(2d,p)
 ****
 34  35 0
 6-311+G(2d,p)
 ****
 1  2  14  15  16  17  18  19  20  21  22  23  25  26 0
 3-21G
 ****
 31  33  36  37  38  39  40  41  42  43  44  45  46 0
 3-21G
 ****


