%nproc=1
%NoSave
%Mem=1900MB
#P OB98/GEN NMR

erre ene a

0 1
  C     -261.998     666.274    -237.784
  O     -263.184     665.651    -237.310
  P     -264.000     664.702    -238.308
  C     -266.279     665.100    -239.518
  O     -265.013     665.631    -239.141
  C     -267.063     666.117    -240.343
  O     -267.448     667.237    -239.490
  C     -266.290     666.695    -241.529
  O     -267.229     666.954    -242.587
  C     -265.783     668.022    -240.984
  O     -265.406     668.948    -241.993
  C     -266.988     668.439    -240.144
  N     -266.667     669.497    -239.170
  C     -267.724     670.087    -238.493
  O     -268.917     669.783    -238.657
  N     -267.402     671.103    -237.643
  C     -266.165     671.636    -237.474
  O     -265.950     672.640    -236.790
  C     -265.077     670.983    -238.213
  C     -265.366     669.952    -239.019
  O     -264.968     663.867    -237.333
  O     -263.155     663.801    -239.152
  H     -266.095     668.935    -242.676
  H     -264.604     662.989    -237.172
  H     -268.162     671.544    -237.129
  H     -264.061     671.364    -238.080
  H     -264.589     669.460    -239.588
  H     -267.798     668.777    -240.791
  H     -264.897     667.844    -240.357
  H     -265.482     666.051    -241.896
  H     -267.989     665.638    -240.681
  H     -266.839     664.848    -238.622
  H     -266.130     664.168    -240.092
  P     -266.656     667.162    -244.080
  C     -265.932     669.324    -245.371
  O     -266.034     668.638    -244.128
  O     -268.010     667.288    -244.910
  O     -265.775     666.037    -244.547
  H     -268.686     667.848    -244.457
  H     -266.766     669.088    -246.028
  H     -265.000     669.065    -245.843
  H     -265.944     670.392    -245.170
  H     -261.573     666.871    -237.004
  H     -262.233     666.897    -238.622
  H     -261.296     665.524    -238.083

 3  4  5  6  7  8  9  10  11  12  13  23  28  29  30  31  32 0
 6-311+G(2d,p)
 ****
 33  34 0
 6-311+G(2d,p)
 ****
 1  2  14  15  16  17  18  19  20  21  22  24  25  26 0
 3-21G
 ****
 27  35  36  37  38  39  40  41  42  43  44  45 0
 3-21G
 ****


