%nproc=1
%NoSave
%Mem=1900MB
#P OB98/GEN NMR

erre ene a

0 1
  C      -36.518    -203.791     -81.673
  O      -37.270    -204.187     -82.803
  H      -36.968    -204.230     -80.780
  H      -36.538    -202.702     -81.577
  H      -35.485    -204.141     -81.759
  P      -36.723    -203.722     -84.238
  C      -36.550    -201.431     -85.447
  O      -37.174    -202.187     -84.417
  C      -37.448    -200.276     -85.890
  O      -38.569    -200.815     -86.656
  C      -38.039    -199.451     -84.731
  O      -38.123    -198.086     -85.158
  C      -39.452    -200.000     -84.613
  O      -40.336    -199.089     -83.963
  C      -39.769    -200.254     -86.088
  N      -44.709    -200.357     -87.070
  C      -43.822    -199.296     -87.019
  N      -44.333    -198.070     -87.269
  N      -42.550    -199.422     -86.748
  C      -42.173    -200.708     -86.552
  C      -42.948    -201.846     -86.568
  C      -44.362    -201.688     -86.844
  O      -45.197    -202.588     -86.884
  N      -42.194    -202.964     -86.293
  C      -40.966    -202.500     -86.112
  N      -40.906    -201.141     -86.259
  O      -37.677    -204.517     -85.251
  O      -35.279    -203.998     -84.495
  H      -40.250    -198.218     -84.408
  H      -37.261    -205.359     -85.517
  H      -45.679    -200.203     -87.273
  H      -40.098    -203.101     -85.872
  H      -40.006    -199.329     -86.629
  H      -39.449    -200.939     -84.045
  H      -45.290    -197.899     -87.533
  H      -37.469    -199.514     -83.796
  H      -43.693    -197.281     -87.280
  H      -36.879    -199.635     -86.577
  H      -36.359    -202.087     -86.304
  H      -35.594    -201.041     -85.079
  P      -36.807    -197.176     -85.039
  C      -35.023    -196.840     -83.172
  O      -36.379    -197.112     -83.493
  O      -37.368    -195.699     -85.311
  O      -35.721    -197.541     -86.000
  H      -36.666    -195.140     -85.689
  H      -34.903    -196.832     -82.109
  H      -34.747    -195.886     -83.570
  H      -34.397    -197.598     -83.596

 6  7  8  9  10  11  12  13  14  15  26  29  33  34 0
 6-311+G(2d,p)
 ****
 36  38  39  40  41 0
 6-311+G(2d,p)
 ****
 1  2  3  4  5  16  17  18  19  20  21  22  23  24  25 0
 3-21G
 ****
 27  28  30  31  32  35  37  42  43  44  45  46  47 0
 3-21G
 ****
 48  49 0
 3-21G
 ****


