%nproc=1
%NoSave
%Mem=1900MB
#P OB98/GEN NMR

erre ene a

0 1
  C      -28.834       5.462     -34.383
  O      -29.881       5.435     -35.344
  P      -30.055       6.726     -36.288
  C      -31.685       8.009     -34.726
  O      -31.513       7.310     -35.952
  C      -33.013       8.760     -34.717
  O      -33.063       9.688     -35.822
  C      -34.243       7.878     -34.871
  O      -34.634       7.285     -33.643
  C      -35.276       8.896     -35.325
  O      -35.757       9.640     -34.186
  C      -34.449       9.806     -36.236
  N      -36.279      11.287     -40.777
  C      -36.394      11.821     -39.542
  N      -35.887      11.361     -38.381
  C      -35.230      10.203     -38.572
  C      -35.062       9.522     -39.767
  C      -35.613      10.113     -40.917
  N      -35.471       9.583     -42.176
  N      -34.333       8.369     -39.569
  C      -34.055       8.358     -38.281
  N      -34.568       9.453     -37.638
  O      -30.240       6.082     -37.744
  O      -28.928       7.698     -36.241
  H      -34.984      10.093     -33.799
  H      -29.995       6.734     -38.429
  H      -36.963      12.747     -39.482
  H      -33.482       7.591     -37.778
  H      -34.729      10.861     -36.139
  H      -36.149       8.438     -35.793
  H      -34.100       7.127     -35.660
  H      -33.068       9.342     -33.786
  H      -30.868       8.725     -34.602
  H      -35.731      10.157     -42.965
  H      -34.807       8.825     -42.302
  H      -31.649       7.293     -33.898
  P      -34.268       5.735     -33.433
  C      -36.234       4.714     -34.792
  O      -35.663       4.959     -33.518
  O      -33.877       5.661     -31.883
  O      -33.177       5.240     -34.324
  H      -33.271       4.912     -31.721
  H      -36.988       3.929     -34.695
  H      -35.477       4.387     -35.509
  H      -36.718       5.624     -35.160
  H      -28.834       4.546     -33.829
  H      -28.985       6.283     -33.714
  H      -27.895       5.576     -34.882

 3  4  5  6  7  8  9  10  11  12  22  25  29  30  31  32 0
 6-311+G(2d,p)
 ****
 33  36  37 0
 6-311+G(2d,p)
 ****
 1  2  13  14  15  16  17  18  19  20  21  23  24  26 0
 3-21G
 ****
 27  28  34  35  38  39  40  41  42  43  44  45  46  47  48 0
 3-21G
 ****


