%nproc=1
%NoSave
%Mem=1900MB
#P OB98/GEN NMR

erre ene a

0 1
  C     -127.298    -107.390      38.829
  O     -127.614    -107.176      37.463
  P     -126.539    -107.639      36.363
  C     -124.360    -106.517      35.479
  O     -125.241    -106.720      36.571
  C     -123.053    -105.878      35.955
  O     -122.488    -106.709      37.002
  C     -121.981    -105.723      34.870
  O     -121.234    -104.542      35.187
  C     -121.109    -106.948      35.074
  O     -119.804    -106.791      34.525
  C     -121.151    -107.076      36.592
  N     -117.483    -110.485      37.297
  C     -117.424    -109.226      36.727
  N     -116.201    -108.798      36.349
  N     -118.467    -108.459      36.550
  C     -119.618    -109.016      36.992
  C     -119.811    -110.264      37.536
  C     -118.646    -111.088      37.762
  O     -118.640    -112.171      38.341
  N     -121.137    -110.508      37.779
  C     -121.734    -109.377      37.459
  N     -120.851    -108.428      37.021
  O     -127.171    -107.098      34.999
  O     -126.247    -109.106      36.319
  H     -119.381    -107.673      34.500
  H     -127.704    -107.789      34.559
  H     -116.643    -111.023      37.426
  H     -122.792    -109.188      37.529
  H     -120.443    -106.404      37.091
  H     -121.573    -107.816      34.591
  H     -115.352    -109.324      36.484
  H     -122.389    -105.656      33.858
  H     -116.125    -107.866      35.958
  H     -123.289    -104.905      36.402
  H     -124.836    -105.842      34.761
  H     -124.167    -107.472      34.981
  P     -120.206    -103.988      34.089
  C     -117.919    -104.744      33.135
  O     -119.054    -105.083      33.906
  O     -119.463    -102.799      34.866
  O     -120.841    -103.485      32.833
  H     -119.218    -102.098      34.233
  H     -117.090    -105.392      33.427
  H     -117.624    -103.702      33.291
  H     -118.138    -104.904      32.077
  H     -128.101    -107.035      39.441
  H     -126.401    -106.861      39.075
  H     -127.154    -108.436      39.002

 3  4  5  6  7  8  9  10  11  12  23  26  30  31 0
 6-311+G(2d,p)
 ****
 33  35  36  37  38 0
 6-311+G(2d,p)
 ****
 1  2  13  14  15  16  17  18  19  20  21  22  24  25 0
 3-21G
 ****
 27  28  29  32  34  39  40  41  42  43  44  45  46  47  48  49 0
 3-21G
 ****


