%nproc=1
%NoSave
%Mem=1900MB
#P OB98/GEN NMR

erre ene a

0 1
  C      121.380     364.437      79.670
  O      121.976     365.098      80.775
  P      123.533     365.454      80.773
  C      123.978     363.986      82.905
  O      124.313     364.315      81.574
  C      123.829     362.461      83.015
  O      123.038     361.958      81.917
  C      125.183     361.762      82.980
  O      125.660     361.523      84.294
  C      124.882     360.493      82.207
  O      124.297     359.502      83.070
  C      123.837     360.994      81.181
  N      124.326     361.654      79.952
  C      123.757     361.329      78.726
  O      122.826     360.534      78.591
  N      124.312     361.941      77.629
  C      125.327     362.856      77.658
  O      125.969     363.207      76.674
  C      125.693     363.353      78.989
  C      125.200     362.725      80.055
  O      123.615     366.716      81.755
  O      124.124     365.746      79.432
  H      123.608     359.952      83.598
  H      123.646     367.546      81.244
  H      123.996     361.606      76.725
  H      126.388     364.174      79.053
  H      125.492     363.049      81.053
  H      123.171     360.182      80.867
  H      125.792     360.047      81.805
  H      125.905     362.357      82.405
  H      123.302     362.224      83.949
  H      123.044     364.482      83.190
  H      124.754     364.340      83.586
  P      127.095     362.079      84.730
  C      127.824     359.678      84.194
  O      128.153     361.050      84.095
  O      127.265     362.354      86.186
  O      127.258     363.407      83.846
  H      127.018     364.190      84.380
  H      128.522     359.103      83.579
  H      126.806     359.498      83.838
  H      127.919     359.348      85.234
  H      120.338     364.289      79.862
  H      121.854     363.489      79.524
  H      121.499     365.034      78.790

 3  4  5  6  7  8  9  10  11  12  13  23  28  29  30  31  32 0
 6-311+G(2d,p)
 ****
 33  34 0
 6-311+G(2d,p)
 ****
 1  2  14  15  16  17  18  19  20  21  22  24  25  26  27 0
 3-21G
 ****
 35  36  37  38  39  40  41  42  43  44  45 0
 3-21G
 ****


