%nproc=1
%NoSave
%Mem=1900MB
#P OB98/GEN NMR

erre ene a

0 1
  C     -333.749     660.652      79.575
  O     -333.564     660.954      80.955
  P     -333.159     659.738      81.929
  C     -335.008     660.658      83.507
  O     -333.673     660.171      83.390
  C     -335.358     660.927      84.958
  O     -335.297     659.694      85.711
  C     -334.412     661.886      85.679
  O     -334.718     663.244      85.389
  C     -334.702     661.550      87.136
  O     -335.890     662.243      87.564
  C     -334.957     660.037      87.085
  N     -332.005     658.645      90.960
  C     -333.111     659.473      90.941
  N     -333.501     659.987      92.130
  N     -333.770     659.780      89.847
  C     -333.302     659.163      88.751
  C     -332.211     658.314      88.633
  C     -331.454     658.030      89.842
  O     -330.439     657.351      89.908
  N     -332.051     657.869      87.353
  C     -333.057     658.413      86.687
  N     -333.820     659.230      87.482
  O     -331.571     659.877      82.035
  O     -333.567     658.382      81.461
  H     -335.833     663.147      87.216
  H     -331.175     659.009      82.258
  H     -331.549     658.429      91.825
  H     -333.253     658.248      85.633
  H     -335.817     659.753      87.699
  H     -333.895     661.846      87.809
  H     -333.110     659.691      93.008
  H     -333.365     661.654      85.450
  H     -334.329     660.571      92.139
  H     -336.392     661.295      85.004
  H     -335.703     659.907      83.102
  H     -335.103     661.577      82.914
  P     -334.009     663.878      84.094
  C     -333.379     666.084      85.331
  O     -334.126     665.456      84.284
  O     -335.038     663.548      82.921
  O     -332.637     663.343      83.820
  H     -334.564     663.505      82.057
  H     -332.407     665.604      85.455
  H     -333.948     666.030      86.256
  H     -333.225     667.127      85.064
  H     -334.013     661.544      79.047
  H     -334.532     659.930      79.470
  H     -332.841     660.255      79.172

 3  4  5  6  7  8  9  10  11  12  23  26  30  31  33  0
 6-311+G(2d,p)
 ****
 35  36  37  38 0
 6-311+G(2d,p)
 ****
 1  2  13  14  15  16  17  18  19  20  21  22  24  25  27  28  29 0
 3-21G
 ****
 32  34  39  40  41  42  43  44  45  46  47  48  49 0
 3-21G
 ****


