%nproc=1
%NoSave
%Mem=1900MB
#P OB98/GEN NMR

erre ene a

0 1
  C     -143.588    -366.650    -395.230
  O     -142.528    -367.073    -394.372
  P     -141.874    -368.520    -394.582
  C     -139.563    -368.226    -393.454
  O     -140.282    -368.372    -394.675
  C     -138.513    -369.336    -393.331
  O     -139.129    -370.639    -393.222
  C     -137.607    -369.435    -394.549
  O     -136.693    -368.373    -394.750
  C     -137.027    -370.831    -394.408
  O     -135.914    -370.855    -393.516
  C     -138.224    -371.605    -393.800
  N     -138.912    -372.448    -394.784
  C     -138.902    -373.818    -394.524
  O     -138.326    -374.319    -393.561
  N     -139.557    -374.597    -395.442
  C     -140.168    -374.159    -396.580
  O     -140.719    -374.911    -397.377
  C     -140.119    -372.709    -396.814
  C     -139.500    -371.930    -395.921
  O     -142.498    -369.367    -395.638
  O     -142.067    -369.204    -393.140
  H     -136.241    -370.616    -392.631
  H     -142.323    -370.135    -393.286
  H     -139.569    -375.590    -395.264
  H     -140.591    -372.328    -397.705
  H     -139.462    -370.858    -396.073
  H     -137.887    -372.253    -392.985
  H     -136.672    -371.223    -395.369
  H     -138.249    -369.448    -395.441
  H     -137.939    -369.166    -392.414
  H     -140.258    -368.268    -392.610
  H     -139.101    -367.233    -393.430
  P     -136.789    -367.359    -395.990
  C     -136.880    -364.983    -394.954
  O     -137.596    -366.060    -395.516
  O     -137.129    -367.930    -397.324
  O     -135.282    -366.798    -396.053
  H     -135.063    -366.614    -396.982
  H     -137.591    -364.194    -394.671
  H     -136.172    -364.571    -395.674
  H     -136.353    -365.310    -394.052
  H     -143.903    -365.666    -394.950
  H     -144.412    -367.327    -395.140
  H     -143.244    -366.639    -396.243

 3  4  5  6  7  8  9  10  11  12  13  23  28  29  30  31  32 0
 6-311+G(2d,p)
 ****
 33  34 0
 6-311+G(2d,p)
 ****
 1  2  14  15  16  17  18  19  20  21  22  24  25  26  27 0
 3-21G
 ****
 35  36  37  38  39  40  41  42  43  44  45 0
 3-21G
 ****


