%nproc=1
%NoSave
%Mem=1900MB
#P OB98/GEN NMR

erre ene a

0 1
  C      331.620     201.879      93.629
  O      332.849     201.582      94.265
  H      331.004     202.469      94.312
  H      331.091     200.956      93.380
  H      331.801     202.462      92.720
  P      333.857     200.622      93.463
  C      332.961     198.492      94.678
  O      333.097     199.204      93.456
  C      331.970     197.347      94.505
  O      330.650     197.851      94.200
  C      332.305     196.383      93.370
  O      333.341     195.469      93.695
  C      330.966     195.687      93.210
  O      330.773     194.757      94.292
  C      329.999     196.888      93.325
  N      329.684     197.498      92.031
  C      328.705     196.858      91.258
  O      328.153     195.839      91.663
  N      328.402     197.376      90.021
  C      329.001     198.447      89.600
  N      328.658     198.912      88.367
  C      330.027     199.161      90.384
  C      330.316     198.636      91.575
  O      335.044     200.378      94.507
  O      334.298     201.107      92.124
  H      331.416     194.038      94.160
  H      335.654     199.676      94.167
  H      330.509     200.042      89.988
  H      331.061     199.104      92.210
  H      329.060     196.590      93.811
  H      330.879     195.120      92.283
  H      332.538     196.922      92.443
  H      331.902     196.815      95.466
  H      327.995     198.368      87.829
  H      332.598     199.191      95.443
  H      329.169     199.640      87.893
  H      333.927     198.093      94.991
  P      334.357     195.060      92.516
  C      332.688     193.231      91.705
  O      333.483     194.361      91.370
  O      335.176     193.843      93.151
  O      335.257     196.163      92.053
  H      336.100     193.840      92.834
  H      332.171     192.887      90.833
  H      331.977     193.505      92.456
  H      333.317     192.450      92.078

 6  7  8  9  10  11  12  13  14  15  16  26  30  31  32  33  35 0
 6-311+G(2d,p)
 ****
 37  38 0
 6-311+G(2d,p)
 ****
 1  2  3  4  5  17  18  19  20  21  22  23  24  25 0
 3-21G
 ****
 27  28  29  34  36  39  40  41  42  43  44  45  46 0
 3-21G
 ****


