%nproc=1
%NoSave
%Mem=1900MB
#P OB98/GEN NMR

erre ene a

0 1
  C       42.509     104.887      21.655
  O       41.200     104.344      21.460
  P       41.067     102.750      21.608
  C       40.822     102.470      19.044
  O       41.522     102.085      20.218
  C       41.404     101.794      17.798
  O       42.549     102.537      17.287
  C       41.876     100.356      18.040
  O       41.622      99.623      16.834
  C       43.375     100.520      18.212
  O       44.063      99.286      18.020
  C       43.641     101.597      17.162
  N       47.939     102.856      14.831
  C       46.883     102.081      14.393
  N       46.960     101.614      13.129
  N       45.841     101.791      15.129
  C       45.882     102.361      16.358
  C       46.862     103.159      16.903
  C       48.024     103.444      16.088
  O       48.982     104.127      16.426
  N       46.528     103.572      18.172
  C       45.378     102.962      18.408
  N       44.920     102.264      17.324
  O       39.485     102.520      21.645
  O       41.737     102.204      22.826
  H       43.728      98.655      18.692
  H       39.186     102.387      22.563
  H       48.724     103.033      14.229
  H       44.827     103.014      19.331
  H       43.632     101.194      16.140
  H       43.603     100.890      19.218
  H       47.711     101.840      12.492
  H       41.404      99.860      18.892
  H       46.182     101.077      12.769
  H       40.636     101.802      17.015
  H       40.872     103.554      18.918
  H       39.761     102.228      19.166
  P       40.203      98.897      16.685
  C       40.839      96.703      17.900
  O       40.056      97.878      17.911
  O       40.420      97.933      15.423
  O       39.051      99.821      16.460
  H       39.608      97.918      14.881
  H       40.996      96.373      18.930
  H       41.813      96.866      17.431
  H       40.305      95.918      17.356
  H       42.476     105.949      21.533
  H       43.181     104.466      20.936
  H       42.849     104.652      22.642

 3  4  5  6  7  8  9  10  11  12  23  26  30  31 0
 6-311+G(2d,p)
 ****
 33  35  36  37  38 0
 6-311+G(2d,p)
 ****
 1  2  13  14  15  16  17  18  19  20  21  22  24  25 0
 3-21G
 ****
 27  28  29  32  34  39  40  41  42  43  44  45  46  47  48  49 0
 3-21G
 ****


