%nproc=1
%NoSave
%Mem=1900MB
#P OB98/GEN NMR

erre ene a

0 1
  C       45.763     351.867    -265.007
  O       46.307     352.115    -266.289
  H       45.809     352.772    -264.394
  H       44.713     351.577    -265.125
  H       46.302     351.052    -264.517
  P       47.851     352.551    -266.345
  C       48.078     355.118    -266.691
  O       47.906     354.050    -265.769
  C       46.713     355.668    -267.100
  O       45.920     355.958    -265.927
  C       46.774     356.972    -267.887
  O       47.054     356.758    -269.261
  C       45.357     357.483    -267.693
  O       44.455     356.764    -268.554
  C       45.094     357.114    -266.226
  N       43.185     360.919    -263.374
  C       42.599     360.044    -264.219
  N       43.176     359.060    -264.942
  C       44.503     359.036    -264.730
  C       45.235     359.872    -263.910
  C       44.529     360.851    -263.196
  N       45.119     361.758    -262.350
  N       46.587     359.562    -263.982
  C       46.650     358.540    -264.804
  N       45.420     358.190    -265.295
  O       48.127     352.752    -267.913
  O       48.818     351.604    -265.709
  H       43.557     357.095    -268.354
  H       49.088     352.701    -268.091
  H       41.519     360.143    -264.325
  H       47.562     358.018    -265.080
  H       44.050     356.834    -266.040
  H       45.246     358.544    -267.927
  H       47.477     357.687    -267.442
  H       46.191     354.889    -267.674
  H       48.597     354.745    -267.581
  H       44.549     362.535    -262.038
  H       46.131     361.810    -262.332
  H       48.680     355.908    -266.223
  P       47.617     358.007    -270.103
  C       46.126     358.763    -272.097
  O       46.322     358.753    -270.687
  O       48.262     357.316    -271.392
  O       48.589     358.871    -269.368
  H       48.973     357.871    -271.768
  H       45.227     359.295    -272.328
  H       46.047     357.757    -272.453
  H       46.957     359.245    -272.569

 6  7  8  9  10  11  12  13  14  15  25  28  32  33  34  35 0
 6-311+G(2d,p)
 ****
 36  39  40 0
 6-311+G(2d,p)
 ****
 1  2  3  4  5  16  17  18  19  20  21  22  23  24 0
 3-21G
 ****
 26  27  29  30  31  37  38  41  42  43  44  45  46  47 0
 3-21G
 ****
 48 0
 3-21G
 ****


