%nproc=1
%NoSave
%Mem=1900MB
#P OB98/GEN NMR

erre ene a

0 1
  C      553.554     438.020    -106.169
  O      553.044     439.150    -105.485
  H      554.560     437.814    -105.803
  H      553.608     438.219    -107.241
  H      552.925     437.146    -105.981
  P      551.569     439.659    -105.855
  C      550.412     440.278    -108.080
  O      551.646     440.150    -107.381
  C      550.657     440.277    -109.581
  O      550.883     438.933    -110.050
  C      549.493     440.829    -110.402
  O      549.519     442.247    -110.406
  C      549.789     440.215    -111.759
  O      550.866     440.943    -112.390
  C      550.267     438.805    -111.364
  N      549.217     433.843    -111.138
  C      550.436     434.489    -111.279
  N      551.523     433.703    -111.419
  N      550.573     435.791    -111.300
  C      549.391     436.454    -111.214
  C      548.123     435.920    -111.088
  C      547.996     434.491    -111.009
  O      546.933     433.873    -110.871
  N      547.166     436.907    -111.105
  C      547.856     438.033    -111.200
  N      549.211     437.808    -111.282
  O      550.970     440.673    -104.927
  O      550.701     438.317    -105.930
  H      550.594     441.877    -112.414
  H      550.278     438.121    -105.074
  H      549.183     432.836    -111.148
  H      547.424     439.027    -111.200
  H      551.029     438.415    -112.054
  H      548.940     440.240    -112.440
  H      551.441     432.733    -111.701
  H      548.526     440.440    -110.051
  H      552.414     434.156    -111.576
  H      551.575     440.844    -109.775
  H      549.956     441.226    -107.765
  H      549.734     439.457    -107.811
  P      548.410     443.096    -111.207
  C      547.360     442.715    -113.539
  O      548.517     442.585    -112.726
  O      548.512     444.573    -111.047
  O      547.012     442.488    -110.734
  H      546.644     442.919    -109.922
  H      547.569     442.339    -114.519
  H      547.084     443.747    -113.604
  H      546.556     442.157    -113.107

 6  7  8  9  10  11  12  13  14  15  26  29  33  34 0
 6-311+G(2d,p)
 ****
 36  38  39  40  41 0
 6-311+G(2d,p)
 ****
 1  2  3  4  5  16  17  18  19  20  21  22  23  24  25 0
 3-21G
 ****
 27  28  30  31  32  35  37  42  43  44  45  46  47 0
 3-21G
 ****
 48  49 0
 3-21G
 ****


