%nproc=1
%NoSave
%Mem=1900MB
#P OB98/GEN NMR

erre ene a

0 1
  C     -201.181      50.971     550.156
  O     -200.015      50.290     549.746
  H     -201.779      50.301     550.772
  H     -201.774      51.282     549.286
  H     -200.915      51.854     550.751
  P     -199.015      51.020     548.728
  C     -196.467      50.929     548.253
  O     -197.581      50.327     548.912
  C     -195.145      50.414     548.834
  O     -194.995      50.947     550.193
  C     -195.069      48.881     548.935
  O     -193.681      48.508     548.797
  C     -195.544      48.646     550.363
  O     -195.250      47.342     550.794
  C     -194.847      49.809     551.080
  N     -195.423      50.080     552.399
  C     -194.899      49.335     553.459
  O     -194.010      48.506     553.251
  N     -195.406      49.528     554.712
  C     -196.400      50.345     554.886
  N     -196.870      50.477     556.156
  C     -197.031      51.108     553.773
  C     -196.500      50.929     552.569
  O     -199.000      52.510     548.790
  O     -199.482      50.508     547.284
  H     -194.326      47.094     550.563
  H     -199.976      51.210     546.822
  H     -197.871      51.756     553.973
  H     -196.887      51.434     551.701
  H     -193.783      49.609     551.193
  H     -196.635      48.758     550.427
  H     -195.671      48.371     548.183
  H     -194.317      50.817     548.243
  H     -196.420      49.944     556.880
  H     -196.552      52.009     548.408
  H     -197.660      51.075     556.417
  H     -196.506      50.723     547.185
  P     -193.047      48.050     547.406
  C     -190.622      48.115     546.491
  O     -191.472      47.795     547.602
  O     -193.374      48.945     546.251
  O     -193.625      46.568     547.154
  H     -193.695      46.421     546.190
  H     -189.605      47.902     546.747
  H     -190.720      49.154     546.255
  H     -190.907      47.528     545.643

 6  7  8  9  10  11  12  13  14  15  16  26  30  31  32  33  35 0
 6-311+G(2d,p)
 ****
 37  38 0
 6-311+G(2d,p)
 ****
 1  2  3  4  5  17  18  19  20  21  22  23  24  25 0
 3-21G
 ****
 27  28  29  34  36  39  40  41  42  43  44  45  46 0
 3-21G
 ****


