%nproc=1
%NoSave
%Mem=1900MB
#P OB98/GEN NMR

erre ene a

0 1
  C        9.312     120.894     244.935
  O        8.138     120.152     244.671
  H        9.421     121.661     244.163
  H       10.189     120.240     244.910
  H        9.235     121.381     245.910
  P        7.812     118.945     245.675
  C        5.829     120.393     246.456
  O        6.960     119.628     246.854
  C        5.072     120.906     247.681
  O        4.178     119.862     248.141
  C        5.987     121.282     248.848
  O        5.468     122.440     249.498
  C        5.886     120.087     249.780
  O        6.169     120.428     251.134
  C        4.453     119.621     249.532
  N        1.339     116.188     251.662
  C        1.181     117.499     251.380
  N        2.061     118.339     250.794
  C        3.183     117.685     250.448
  C        3.488     116.354     250.672
  C        2.504     115.589     251.320
  N        2.666     114.259     251.633
  N        4.758     116.066     250.212
  C        5.205     117.199     249.705
  N        4.294     118.211     249.841
  O        8.985     118.138     246.120
  O        6.694     118.139     244.864
  H        7.139     120.523     251.232
  H        6.039     118.742     244.465
  H        0.227     117.933     251.669
  H        6.179     117.342     249.248
  H        3.721     120.172     250.134
  H        6.604     119.317     249.469
  H        7.015     121.465     248.532
  H        4.443     121.751     247.379
  H        5.158     119.783     245.841
  H        1.902     113.781     252.086
  H        3.520     113.789     251.370
  H        6.186     121.233     245.852
  P        6.437     123.702     249.701
  C        4.976     125.124     248.119
  O        6.289     124.669     248.430
  O        7.836     123.390     250.113
  O        5.681     124.534     250.847
  H        6.347     124.927     251.443
  H        5.013     125.757     247.257
  H        4.583     125.674     248.949
  H        4.345     124.283     247.918

 6  7  8  9  10  11  12  13  14  15  25  28  32  33  34  35 0
 6-311+G(2d,p)
 ****
 36  39  40 0
 6-311+G(2d,p)
 ****
 1  2  3  4  5  16  17  18  19  20  21  22  23  24 0
 3-21G
 ****
 26  27  29  30  31  37  38  41  42  43  44  45  46  47 0
 3-21G
 ****
 48 0
 3-21G
 ****


