%nproc=1
%NoSave
%Mem=1900MB
#P OB98/GEN NMR

erre ene a

0 1
  C      236.287    -410.628    -675.569
  O      236.684    -409.731    -676.586
  H      236.609    -411.634    -675.845
  H      235.197    -410.621    -675.474
  H      236.745    -410.356    -674.617
  P      236.385    -408.174    -676.334
  C      238.418    -408.447    -674.749
  O      237.204    -407.761    -675.013
  C      239.313    -407.623    -673.823
  O      240.069    -406.667    -674.626
  C      238.547    -406.823    -672.758
  O      239.351    -406.791    -671.570
  C      238.517    -405.420    -673.344
  O      238.308    -404.414    -672.352
  C      239.890    -405.375    -674.010
  N      241.479    -400.649    -674.665
  C      241.569    -401.482    -673.567
  N      242.179    -400.978    -672.470
  N      241.105    -402.700    -673.542
  C      240.553    -403.084    -674.722
  C      240.396    -402.359    -675.876
  C      240.892    -400.995    -675.878
  O      240.822    -400.203    -676.812
  N      239.757    -403.095    -676.839
  C      239.530    -404.265    -676.269
  N      239.994    -404.307    -674.984
  O      234.860    -408.182    -675.847
  O      236.590    -407.284    -677.514
  H      239.079    -404.422    -671.749
  H      234.263    -408.040    -676.606
  H      241.842    -399.711    -674.626
  H      239.034    -405.104    -676.738
  H      240.703    -405.226    -673.288
  H      237.718    -405.339    -674.087
  H      242.602    -400.063    -672.430
  H      237.555    -407.213    -672.521
  H      242.293    -401.587    -671.669
  H      240.044    -408.292    -673.361
  H      238.942    -408.619    -675.693
  H      238.193    -409.413    -674.286
  P      238.625    -407.051    -670.163
  C      239.311    -409.560    -670.175
  O      238.261    -408.609    -670.075
  O      237.191    -406.366    -670.373
  O      239.343    -406.480    -668.984
  H      236.837    -406.072    -669.511
  H      238.906    -410.548    -670.098
  H      240.014    -409.400    -669.384
  H      239.804    -409.449    -671.118

 6  7  8  9  10  11  12  13  14  15  26  29  33  34 0
 6-311+G(2d,p)
 ****
 36  38  39  40  41 0
 6-311+G(2d,p)
 ****
 1  2  3  4  5  16  17  18  19  20  21  22  23  24  25 0
 3-21G
 ****
 27  28  30  31  32  35  37  42  43  44  45  46  47 0
 3-21G
 ****
 48  49 0
 3-21G
 ****


