%nproc=1
%NoSave
%Mem=1900MB
#P OB98/GEN NMR

erre ene a

0 1
  C       48.450     -84.389    -895.110
  O       48.509     -83.089    -895.660
  H       47.649     -84.964    -895.580
  H       49.405     -84.887    -895.290
  H       48.281     -84.322    -894.020
  P       47.163     -82.227    -895.590
  C       47.933     -80.576    -893.740
  O       47.585     -80.750    -895.110
  C       48.886     -79.395    -893.590
  O       50.238     -79.807    -893.900
  C       48.607     -78.218    -894.520
  O       47.534     -77.419    -894.040
  C       49.930     -77.480    -894.440
  O       49.985     -76.692    -893.240
  C       50.951     -78.630    -894.360
  N       54.113     -76.918    -898.020
  C       53.676     -76.359    -896.880
  N       52.832     -76.859    -895.960
  C       52.434     -78.103    -896.300
  C       52.796     -78.797    -897.440
  C       53.666     -78.159    -898.340
  N       54.097     -78.734    -899.520
  N       52.198     -80.043    -897.460
  C       51.482     -80.096    -896.350
  N       51.590     -78.936    -895.620
  O       46.391     -82.824    -894.320
  O       46.300     -82.282    -896.820
  H       49.251     -76.052    -893.290
  H       45.434     -82.820    -894.490
  H       54.068     -75.368    -896.650
  H       50.895     -80.946    -896.030
  H       51.733     -78.418    -893.620
  H       50.092     -76.805    -895.280
  H       48.434     -78.561    -895.540
  H       48.862     -79.086    -892.540
  H       48.425     -81.486    -893.380
  H       54.862     -78.322    -900.000
  H       53.766     -79.672    -899.730
  H       47.021     -80.408    -893.160
  P       46.771     -76.485    -895.110
  C       45.279     -78.549    -895.660
  O       45.329     -77.161    -895.330
  O       47.536     -76.813    -896.480
  O       46.781     -75.034    -894.800
  H       47.463     -76.058    -897.100
  H       44.259     -78.852    -895.774
  H       45.735     -79.118    -894.877
  H       45.806     -78.717    -896.576

 6  7  8  9  10  11  12  13  14  15  25  28  32  33  34  35 0
 6-311+G(2d,p)
 ****
 36  39  40 0
 6-311+G(2d,p)
 ****
 1  2  3  4  5  16  17  18  19  20  21  22  23  24 0
 3-21G
 ****
 26  27  29  30  31  37  38  41  42  43  44  45  46  47  48 0
 3-21G
 ****


