%nproc=1
%NoSave
%Mem=1900MB
#P OB98/GEN NMR

erre ene a

0 1
  C      773.657     337.536     427.461
  O      773.615     336.557     426.443
  P      774.616     336.600     425.198
  C      774.893     338.091     423.109
  O      774.307     337.968     424.406
  C      773.951     338.869     422.179
  O      772.688     338.142     422.079
  C      773.646     340.294     422.687
  O      773.881     341.318     421.716
  C      772.209     340.173     423.169
  O      771.522     341.405     423.252
  C      771.641     339.125     422.210
  N      770.381     338.538     422.686
  C      769.224     339.288     422.481
  O      769.183     340.370     421.909
  N      768.078     338.758     422.997
  C      767.987     337.645     423.791
  O      766.945     337.281     424.307
  C      769.257     336.926     424.013
  C      770.378     337.395     423.442
  O      774.628     335.388     424.332
  O      776.029     336.936     425.882
  H      770.561     341.222     423.246
  H      776.056     337.763     426.382
  H      767.221     339.275     422.854
  H      769.222     336.052     424.642
  H      771.326     336.877     423.594
  H      771.470     339.546     421.221
  H      772.231     339.762     424.188
  H      774.298     340.559     423.524
  H      774.416     338.892     421.185
  H      775.069     337.093     422.695
  H      775.865     338.587     423.197
  P      774.155     342.861     422.066
  C      772.774     345.067     421.899
  O      772.771     343.657     421.983
  O      775.283     343.488     421.324
  O      774.456     342.840     423.644
  H      775.053     343.570     423.871
  H      771.855     345.451     422.344
  H      772.816     345.362     420.844
  H      773.638     345.494     422.435
  H      772.907     337.321     428.194
  H      773.474     338.501     427.036
  H      774.621     337.527     427.925

 3  4  5  6  7  8  9  10  11  12  13  23  28  29  30  31  32 0
 6-311+G(2d,p)
 ****
 33  34 0
 6-311+G(2d,p)
 ****
 1  2  14  15  16  17  18  19  20  21  22  24  25  26  27 0
 3-21G
 ****
 35  36  37  38  39  40  41  42  43  44  45 0
 3-21G
 ****


