%nproc=1
%NoSave
%Mem=1900MB
#P OB98/GEN NMR

erre ene a

0 1
  C       -5.074     -75.636     -70.589
  O       -4.486     -76.856     -70.989
  H       -4.338     -75.066     -70.018
  H       -5.943     -75.819     -69.954
  H       -5.367     -75.050     -71.464
  P       -5.380     -77.915     -71.794
  C       -6.332     -79.292     -69.830
  O       -6.600     -78.318     -70.833
  C       -7.623     -80.027     -69.448
  O       -8.541     -79.049     -68.899
  C       -8.295     -80.698     -70.655
  O       -8.575     -82.078     -70.437
  C       -9.465     -79.769     -70.960
  O      -10.552     -80.394     -71.610
  C       -9.796     -79.164     -69.593
  N      -10.463     -77.864     -69.669
  C      -11.657     -77.800     -70.381
  O      -12.201     -78.750     -70.938
  N      -12.246     -76.562     -70.436
  C      -11.764     -75.416     -69.878
  O      -12.339     -74.337     -69.959
  C      -10.485     -75.543     -69.164
  C       -9.902     -76.741     -69.094
  O       -4.639     -79.069     -72.379
  O       -6.092     -77.038     -72.929
  H      -10.223     -80.720     -72.475
  H       -5.668     -77.214     -73.790
  H      -13.120     -76.505     -70.934
  H      -10.067     -74.650     -68.720
  H       -8.958     -76.871     -68.573
  H      -10.442     -79.832     -69.023
  H       -9.109     -78.973     -71.625
  H       -7.620     -80.712     -71.518
  H       -7.396     -80.750     -68.657
  H       -5.919     -78.773     -68.959
  H       -5.593     -80.010     -70.203
  P       -7.771     -83.290     -71.088
  C       -9.425     -83.743     -73.081
  O       -8.128     -83.363     -72.645
  O       -7.801     -84.575     -70.331
  O       -6.243     -82.772     -71.098
  H       -5.683     -83.567     -70.984
  H       -9.460     -83.730     -74.150
  H      -10.147     -83.056     -72.692
  H       -9.645     -84.729     -72.729

 6  7  8  9  10  11  12  13  14  15  16  26  31  32  33  34  35 0
 6-311+G(2d,p)
 ****
 36  37 0
 6-311+G(2d,p)
 ****
 1  2  3  4  5  17  18  19  20  21  22  23  24  25 0
 3-21G
 ****
 27  28  29  30  38  39  40  41  42  43  44  45 0
 3-21G
 ****


