%nproc=1
%NoSave
%Mem=1900MB
#P OB98/GEN NMR

erre ene a

0 1
  C     -557.740    -922.815     159.128
  O     -557.008    -921.653     159.535
  P     -555.551    -921.286     158.979
  C     -556.246    -918.990     157.994
  O     -555.731    -920.282     157.733
  C     -556.475    -918.206     156.690
  O     -556.971    -919.101     155.663
  C     -557.527    -917.115     156.767
  O     -557.064    -915.976     157.482
  C     -557.799    -916.857     155.281
  O     -556.834    -915.957     154.723
  C     -557.617    -918.261     154.673
  N     -558.862    -918.859     154.230
  C     -558.816    -919.544     153.003
  O     -557.794    -919.556     152.324
  N     -559.960    -920.189     152.573
  C     -561.062    -920.079     153.252
  N     -562.147    -920.741     152.776
  C     -561.176    -919.252     154.459
  C     -560.053    -918.680     154.888
  O     -554.696    -922.466     158.673
  O     -554.883    -920.355     160.110
  H     -553.909    -920.429     160.059
  H     -555.992    -916.442     154.655
  H     -562.132    -919.137     154.957
  H     -560.045    -918.058     155.790
  H     -556.913    -918.224     153.832
  H     -558.787    -916.426     155.124
  H     -558.438    -917.514     157.251
  H     -555.512    -917.792     156.367
  H     -562.040    -921.310     151.950
  H     -555.514    -918.443     158.603
  H     -563.047    -920.735     153.228
  H     -557.173    -919.071     158.571
  P     -557.810    -915.632     158.854
  C     -556.152    -916.940     160.371
  O     -557.480    -916.805     159.894
  O     -559.353    -915.838     158.506
  O     -557.551    -914.247     159.364
  H     -559.881    -915.145     158.959
  H     -556.180    -917.396     161.366
  H     -555.643    -915.980     160.447
  H     -555.588    -917.596     159.691
  H     -558.681    -922.840     159.636
  H     -557.180    -923.693     159.372
  H     -557.906    -922.780     158.072

 3  4  5  6  7  8  9  10  11  12  13  24  27  28  29  30  32 0
 6-311+G(2d,p)
 ****
 34  35 0
 6-311+G(2d,p)
 ****
 1  2  14  15  16  17  18  19  20  21  22  23  25  26 0
 3-21G
 ****
 31  33  36  37  38  39  40  41  42  43  44  45  46 0
 3-21G
 ****


