%nproc=1
%NoSave
%Mem=1900MB
#P OB98/GEN NMR

erre ene a

0 1
  C      -47.603     -27.935      73.866
  O      -48.365     -26.833      73.419
  H      -46.632     -27.952      73.364
  H      -47.439     -27.838      74.943
  H      -48.138     -28.869      73.672
  P      -48.687     -26.766      71.848
  C      -46.739     -25.119      71.334
  O      -47.285     -26.417      71.147
  C      -45.412     -25.018      70.589
  O      -44.403     -25.803      71.265
  C      -45.466     -25.552      69.162
  O      -45.988     -24.606      68.246
  C      -43.992     -25.815      68.904
  O      -43.315     -24.574      68.637
  C      -43.539     -26.391      70.255
  N      -40.899     -30.758      70.670
  C      -40.510     -29.465      70.682
  N      -41.278     -28.360      70.588
  C      -42.574     -28.688      70.482
  C      -43.121     -29.961      70.462
  C      -42.220     -31.035      70.558
  N      -42.609     -32.355      70.514
  N      -44.494     -29.898      70.318
  C      -44.768     -28.610      70.271
  N      -43.638     -27.839      70.333
  O      -49.518     -25.407      71.686
  O      -49.388     -27.952      71.274
  H      -43.307     -24.069      69.472
  H      -49.956     -25.379      70.814
  H      -39.442     -29.296      70.776
  H      -45.761     -28.188      70.182
  H      -42.506     -26.122      70.502
  H      -43.824     -26.465      68.041
  H      -46.012     -26.501      69.108
  H      -45.086     -23.971      70.606
  H      -46.576     -24.950      72.403
  H      -41.880     -33.048      70.440
  H      -43.567     -32.571      70.283
  H      -47.442     -24.371      70.954
  P      -47.120     -25.111      67.223
  C      -45.374     -25.766      65.414
  O      -46.420     -26.201      66.275
  O      -47.316     -23.852      66.257
  O      -48.398     -25.534      67.870
  H      -48.238     -23.795      65.943
  H      -45.009     -26.598      64.848
  H      -44.578     -25.355      65.999
  H      -45.749     -25.018      64.747

 6  7  8  9  10  11  12  13  14  15  25  28  32  33  34  35 0
 6-311+G(2d,p)
 ****
 36  39  40 0
 6-311+G(2d,p)
 ****
 1  2  3  4  5  16  17  18  19  20  21  22  23  24 0
 3-21G
 ****
 26  27  29  30  31  37  38  41  42  43  44  45  46  47 0
 3-21G
 ****
 48 0
 3-21G
 ****


