%nproc=1
%NoSave
%Mem=1900MB
#P OB98/GEN NMR

erre ene a

0 1
  C      237.472    -541.240      98.870
  O      237.547    -541.713      97.539
  H      236.545    -540.674      98.987
  H      238.317    -540.579      99.086
  H      237.463    -542.081      99.567
  P      238.863    -542.544      97.147
  C      240.674    -540.697      97.231
  O      239.806    -541.474      96.415
  C      241.366    -539.617      96.401
  O      242.265    -540.219      95.455
  C      240.414    -538.744      95.591
  O      239.888    -537.702      96.398
  C      241.357    -538.198      94.528
  O      242.108    -537.093      95.067
  C      242.295    -539.390      94.264
  N      243.858    -541.103      89.682
  C      244.358    -540.154      90.503
  N      243.864    -539.712      91.679
  C      242.730    -540.362      91.994
  C      242.098    -541.350      91.254
  C      242.712    -541.725      90.045
  N      242.198    -542.691      89.210
  N      240.951    -541.782      91.889
  C      240.928    -541.111      93.020
  N      241.960    -540.213      93.116
  O      238.627    -543.821      96.416
  O      239.563    -542.700      98.579
  H      241.460    -536.471      95.445
  H      239.487    -541.873      99.089
  H      245.282    -539.688      90.172
  H      240.197    -541.250      93.809
  H      243.333    -539.063      94.119
  H      240.828    -537.825      93.649
  H      239.629    -539.335      95.106
  H      241.971    -539.005      97.082
  H      241.429    -541.340      97.700
  H      242.590    -542.758      88.286
  H      241.279    -543.058      89.420
  H      240.068    -540.240      98.019
  P      238.372    -537.745      96.921
  C      237.437    -536.683      94.773
  O      237.643    -536.529      96.172
  O      238.231    -537.776      98.403
  O      237.747    -539.031      96.209
  H      236.919    -539.294      96.660
  H      236.946    -535.814      94.387
  H      236.829    -537.545      94.595
  H      238.381    -536.805      94.285

 6  7  8  9  10  11  12  13  14  15  25  28  32  33  34  35 0
 6-311+G(2d,p)
 ****
 36  39  40 0
 6-311+G(2d,p)
 ****
 1  2  3  4  5  16  17  18  19  20  21  22  23  24 0
 3-21G
 ****
 26  27  29  30  31  37  38  41  42  43  44  45  46  47 0
 3-21G
 ****
 48 0
 3-21G
 ****


