%nproc=1
%NoSave
%Mem=1900MB
#P OB98/GEN NMR

erre ene a

0 1
  C      -36.604      27.321     -11.345
  O      -35.974      26.092     -11.655
  H      -36.104      28.119     -11.901
  H      -36.531      27.538     -10.278
  H      -37.653      27.288     -11.648
  P      -36.338      24.810     -10.760
  C      -35.739      24.061      -8.367
  O      -35.785      25.147      -9.288
  C      -35.111      24.487      -7.040
  O      -35.829      25.601      -6.468
  C      -35.139      23.413      -5.965
  O      -34.333      22.289      -6.232
  C      -34.889      24.225      -4.704
  O      -33.502      24.486      -4.490
  C      -35.630      25.544      -5.038
  N      -36.889      25.670      -4.313
  C      -36.791      25.744      -2.929
  O      -35.723      25.686      -2.318
  N      -37.975      25.855      -2.252
  C      -39.219      25.852      -2.811
  O      -40.245      25.934      -2.146
  C      -39.262      25.732      -4.277
  C      -38.112      25.650      -4.952
  O      -35.868      23.491     -11.297
  O      -37.924      24.905     -10.582
  H      -33.442      25.111      -3.743
  H      -38.299      24.048     -10.260
  H      -37.924      25.926      -1.248
  H      -40.232      25.713      -4.753
  H      -38.118      25.562      -6.036
  H      -35.003      26.407      -4.779
  H      -35.266      23.725      -3.810
  H      -36.166      23.032      -5.888
  H      -34.087      24.822      -7.242
  H      -35.131      23.268      -8.815
  H      -36.752      23.680      -8.200
  P      -34.784      20.787      -5.948
  C      -35.154      19.412      -3.756
  O      -35.233      20.670      -4.414
  O      -33.916      19.709      -6.511
  O      -36.203      20.722      -6.718
  H      -36.297      19.815      -7.070
  H      -35.490      19.516      -2.746
  H      -34.140      19.070      -3.761
  H      -35.772      18.703      -4.266

 6  7  8  9  10  11  12  13  14  15  16  26  31  32  33  34  35 0
 6-311+G(2d,p)
 ****
 36  37 0
 6-311+G(2d,p)
 ****
 1  2  3  4  5  17  18  19  20  21  22  23  24  25 0
 3-21G
 ****
 27  28  29  30  38  39  40  41  42  43  44  45 0
 3-21G
 ****


