%nproc=1
%NoSave
%Mem=1900MB
#P OB98/GEN NMR

erre ene a

0 1
  C     -171.476     272.685    -473.964
  O     -171.879     273.106    -472.670
  P     -173.226     272.548    -472.011
  C     -172.231     271.609    -469.842
  O     -173.048     272.623    -470.413
  C     -171.790     271.980    -468.428
  O     -170.808     273.056    -468.498
  C     -172.922     272.462    -467.508
  O     -172.599     272.016    -466.185
  C     -172.799     273.977    -467.581
  O     -173.416     274.634    -466.486
  C     -171.283     274.117    -467.640
  N     -170.191     278.985    -466.492
  C     -170.622     277.957    -465.734
  N     -170.915     276.695    -466.119
  C     -170.716     276.543    -467.441
  C     -170.297     277.506    -468.346
  C     -170.008     278.775    -467.827
  N     -169.531     279.829    -468.582
  N     -170.264     276.973    -469.626
  C     -170.647     275.724    -469.485
  N     -170.873     275.400    -468.178
  O     -173.687     271.222    -472.524
  O     -174.304     273.688    -472.309
  H     -174.369     274.422    -466.490
  H     -174.916     273.392    -473.015
  H     -170.755     278.177    -464.680
  H     -170.786     275.013    -470.291
  H     -170.816     273.999    -466.657
  H     -173.276     274.337    -468.500
  H     -173.917     272.104    -467.804
  H     -171.280     271.112    -467.985
  H     -171.341     271.496    -470.474
  H     -169.229     280.653    -468.085
  H     -169.135     279.629    -469.502
  H     -172.769     270.655    -469.835
  P     -173.618     271.065    -465.382
  C     -171.872     269.261    -464.912
  O     -172.737     270.226    -464.344
  O     -174.553     270.272    -466.240
  O     -174.420     272.090    -464.441
  H     -175.240     271.668    -464.121
  H     -172.442     268.360    -465.154
  H     -171.097     269.004    -464.180
  H     -171.401     269.635    -465.821
  H     -170.557     273.167    -474.226
  H     -172.231     272.947    -474.676
  H     -171.336     271.624    -473.966

 3  4  5  6  7  8  9  10  11  12  22  25  29  30  31  32 0
 6-311+G(2d,p)
 ****
 33  36  37 0
 6-311+G(2d,p)
 ****
 1  2  13  14  15  16  17  18  19  20  21  23  24  26 0
 3-21G
 ****
 27  28  34  35  38  39  40  41  42  43  44  45  46  47  48 0
 3-21G
 ****


