%nproc=1
%NoSave
%Mem=1900MB
#P OB98/GEN NMR

erre ene a

0 1
  C      147.806      99.782     533.710
  O      147.769      99.641     535.130
  P      148.486      98.473     535.955
  C      150.386      99.980     536.977
  O      150.029      98.872     536.150
  C      151.401      99.591     538.097
  O      152.571      98.986     537.457
  C      151.891     100.843     538.808
  O      151.124     101.397     539.869
  C      153.334     100.532     539.186
  O      153.447      99.993     540.506
  C      153.743      99.470     538.135
  N      158.497     101.194     537.263
  C      157.894     100.853     538.462
  N      158.631     101.051     539.590
  N      156.666     100.392     538.570
  C      156.024     100.334     537.373
  C      156.486     100.643     536.121
  C      157.865     101.116     536.029
  O      158.455     101.406     534.976
  N      155.535     100.481     535.156
  C      154.478     100.087     535.825
  N      154.729      99.981     537.177
  O      148.205      97.081     535.482
  O      147.875      98.626     537.431
  H      153.019      99.123     540.526
  H      147.830      97.720     537.811
  H      159.435     101.521     537.233
  H      153.504      99.871     535.384
  H      154.218      98.600     538.626
  H      153.945     101.440     539.154
  H      159.520     101.501     539.585
  H      151.956     101.652     538.051
  H      158.121     101.010     540.472
  H      150.967      98.836     538.757
  H      149.458     100.363     537.418
  H      150.799     100.793     536.355
  P      150.724     102.948     540.044
  C      148.561     102.863     538.645
  O      149.885     103.378     538.740
  O      152.109     103.721     539.839
  O      150.089     103.286     541.351
  H      152.027     104.653     540.195
  H      148.218     102.958     537.605
  H      147.888     103.421     539.296
  H      148.552     101.791     538.915
  H      147.245     100.647     533.423
  H      147.380      98.913     533.254
  H      148.821      99.892     533.389

 3  4  5  6  7  8  9  10  11  12  23  26  30  31 0
 6-311+G(2d,p)
 ****
 33  35  36  37  38 0
 6-311+G(2d,p)
 ****
 1  2  13  14  15  16  17  18  19  20  21  22  24  25 0
 3-21G
 ****
 27  28  29  32  34  39  40  41  42  43  44  45  46  47  48  49 0
 3-21G
 ****


