%nproc=1
%NoSave
%Mem=1900MB
#P OB98/GEN NMR

erre ene a

0 1
  C      209.553     177.069    -361.592
  O      210.381     178.136    -361.158
  P      209.778     179.361    -360.312
  C      210.505     178.475    -357.994
  O      210.701     179.456    -359.006
  C      210.992     179.010    -356.650
  O      212.434     179.008    -356.624
  C      210.574     180.445    -356.352
  O      209.213     180.506    -355.956
  C      211.588     180.821    -355.277
  O      211.188     180.289    -354.005
  C      212.858     180.099    -355.771
  N      213.778     180.986    -356.473
  C      214.818     181.530    -355.714
  O      214.942     181.261    -354.519
  N      215.724     182.353    -356.334
  C      215.594     182.626    -357.597
  N      216.560     183.390    -358.176
  C      214.484     182.117    -358.419
  C      213.625     181.308    -357.803
  O      208.315     179.270    -360.033
  O      210.200     180.663    -361.131
  H      211.972     180.334    -353.420
  H      209.548     180.921    -361.825
  H      214.410     182.383    -359.466
  H      212.792     180.875    -358.343
  H      213.383     179.638    -354.927
  H      211.719     181.902    -355.162
  H      210.720     181.076    -357.234
  H      210.633     178.334    -355.862
  H      217.390     183.568    -357.618
  H      211.082     177.582    -358.257
  H      216.692     183.408    -359.179
  H      209.444     178.209    -357.953
  P      208.585     181.958    -355.693
  C      207.215     181.636    -357.868
  O      207.193     181.989    -356.499
  O      209.547     182.932    -356.516
  O      208.493     182.337    -354.252
  H      210.178     183.374    -355.915
  H      206.187     181.479    -358.199
  H      207.778     180.712    -358.025
  H      207.650     182.446    -358.458
  H      210.141     176.359    -362.136
  H      208.781     177.452    -362.226
  H      209.113     176.591    -360.742

 3  4  5  6  7  8  9  10  11  12  13  23  27  28  29  30  32 0
 6-311+G(2d,p)
 ****
 34  35 0
 6-311+G(2d,p)
 ****
 1  2  14  15  16  17  18  19  20  21  22  24  25  26 0
 3-21G
 ****
 31  33  36  37  38  39  40  41  42  43  44  45  46 0
 3-21G
 ****


