%nproc=1
%NoSave
%Mem=1900MB
#P OB98/GEN NMR

erre ene a

0 1
  C     -618.555    -935.682     106.673
  O     -617.662    -934.645     107.062
  P     -617.341    -934.483     108.624
  C     -618.264    -932.055     108.476
  O     -618.311    -933.322     109.154
  C     -619.100    -931.024     109.225
  O     -620.469    -931.485     109.346
  C     -618.644    -930.739     110.626
  O     -617.568    -929.788     110.661
  C     -619.905    -930.119     111.227
  O     -620.015    -928.750     110.798
  C     -621.012    -930.956     110.592
  N     -624.318    -932.339     114.239
  C     -624.082    -931.134     113.655
  N     -623.163    -930.860     112.694
  C     -622.444    -931.948     112.374
  C     -622.553    -933.214     112.914
  C     -623.562    -933.401     113.884
  N     -623.832    -934.633     114.460
  N     -621.662    -934.080     112.341
  C     -620.994    -933.336     111.449
  N     -621.453    -932.047     111.428
  O     -615.887    -933.801     108.630
  O     -617.360    -935.760     109.415
  H     -620.788    -928.364     111.265
  H     -615.435    -933.993     109.461
  H     -624.688    -930.315     113.980
  H     -620.195    -933.701     110.820
  H     -621.891    -930.340     110.329
  H     -619.905    -930.116     112.338
  H     -618.394    -931.647     111.182
  H     -619.141    -930.100     108.613
  H     -618.664    -932.177     107.460
  H     -624.681    -934.707     115.006
  H     -623.411    -935.462     114.057
  H     -617.228    -931.721     108.412
  P     -616.773    -929.658     112.040
  C     -617.057    -927.105     112.420
  O     -617.432    -928.419     112.807
  O     -615.349    -929.106     111.571
  O     -616.655    -930.923     112.827
  H     -614.637    -929.345     112.226
  H     -617.808    -926.393     112.789
  H     -616.997    -927.006     111.321
  H     -616.086    -926.838     112.853
  H     -618.674    -935.670     105.610
  H     -619.505    -935.528     107.140
  H     -618.157    -936.628     106.977

 3  4  5  6  7  8  9  10  11  12  22  25  29  30  31  32 0
 6-311+G(2d,p)
 ****
 33  36  37 0
 6-311+G(2d,p)
 ****
 1  2  13  14  15  16  17  18  19  20  21  23  24  26 0
 3-21G
 ****
 27  28  34  35  38  39  40  41  42  43  44  45  46  47  48 0
 3-21G
 ****


