%nproc=1
%NoSave
%Mem=1900MB
#P OB98/GEN NMR

erre ene a

0 1
  C     -514.835      48.551    -300.238
  O     -515.396      49.565    -299.428
  H     -514.602      48.977    -301.217
  H     -515.542      47.729    -300.371
  H     -513.909      48.177    -299.792
  P     -515.892      49.183    -297.953
  C     -518.174      48.591    -299.001
  O     -517.494      49.288    -297.961
  C     -519.580      49.178    -299.197
  O     -520.371      48.842    -298.031
  C     -519.562      50.711    -299.340
  O     -520.239      51.175    -300.507
  C     -520.071      51.199    -297.989
  O     -520.690      52.468    -298.010
  C     -520.976      50.047    -297.526
  N     -521.152      49.972    -296.078
  C     -522.312      50.535    -295.544
  O     -523.212      51.063    -296.200
  N     -522.427      50.463    -294.181
  C     -521.523      49.904    -293.323
  O     -521.689      49.869    -292.105
  C     -520.311      49.353    -293.943
  C     -520.180      49.410    -295.269
  O     -515.225      49.921    -296.837
  O     -515.632      47.605    -297.850
  H     -520.986      52.668    -297.101
  H     -514.825      47.438    -297.326
  H     -523.269      50.857    -293.782
  H     -519.568      48.912    -293.289
  H     -519.300      49.008    -295.762
  H     -521.969      50.141    -297.976
  H     -519.212      51.267    -297.299
  H     -518.536      51.073    -299.484
  H     -520.047      48.698    -300.065
  H     -518.239      47.535    -298.708
  H     -517.607      48.669    -299.933
  P     -519.556      51.376    -301.935
  C     -519.709      53.991    -302.014
  O     -520.098      52.741    -302.566
  O     -519.553      50.174    -302.820
  O     -518.017      51.713    -301.564
  H     -517.467      51.341    -302.291
  H     -520.169      54.783    -302.566
  H     -518.645      54.089    -302.069
  H     -520.020      54.042    -300.991

 6  7  8  9  10  11  12  13  14  15  16  26  31  32  33  34  35 0
 6-311+G(2d,p)
 ****
 36  37 0
 6-311+G(2d,p)
 ****
 1  2  3  4  5  17  18  19  20  21  22  23  24  25 0
 3-21G
 ****
 27  28  29  30  38  39  40  41  42  43  44  45 0
 3-21G
 ****


