%nproc=1
%NoSave
%Mem=1900MB
#P OB98/GEN NMR

erre ene a

0 1
  C      227.443      -4.554    -272.557
  O      228.074      -3.436    -273.185
  P      228.720      -3.614    -274.638
  C      230.657      -2.557    -275.990
  O      230.117      -2.825    -274.701
  C      231.372      -1.201    -275.988
  O      230.427      -0.101    -275.933
  C      232.266      -1.000    -274.767
  O      233.431      -1.791    -274.695
  C      232.443       0.509    -274.735
  O      233.477       0.931    -275.623
  C      231.060       0.996    -275.242
  N      230.213       1.504    -274.157
  C      229.683       2.775    -274.349
  O      229.926       3.471    -275.329
  N      228.877       3.236    -273.337
  C      228.591       2.583    -272.182
  O      227.880       3.058    -271.301
  C      229.204       1.255    -272.024
  C      229.974       0.782    -273.007
  O      227.802      -3.373    -275.792
  O      229.202      -5.151    -274.625
  H      233.630       1.881    -275.469
  H      228.998      -5.535    -275.501
  H      228.478       4.155    -273.465
  H      229.003       0.712    -271.115
  H      230.438      -0.196    -272.913
  H      231.190       1.804    -275.976
  H      232.715       0.867    -273.734
  H      231.676      -1.266    -273.877
  H      231.939      -1.098    -276.914
  H      229.858      -2.562    -276.740
  H      231.340      -3.366    -276.267
  P      233.627      -2.964    -273.619
  C      235.432      -4.776    -273.177
  O      235.126      -3.529    -273.753
  O      232.536      -3.969    -273.486
  O      233.724      -2.125    -272.250
  H      233.335      -2.662    -271.531
  H      236.495      -4.990    -273.352
  H      234.840      -5.571    -273.632
  H      235.258      -4.754    -272.100
  H      227.069      -4.260    -271.599
  H      228.155      -5.343    -272.435
  H      226.633      -4.895    -273.167

 3  4  5  6  7  8  9  10  11  12  13  23  28  29  30  31  32 0
 6-311+G(2d,p)
 ****
 33  34 0
 6-311+G(2d,p)
 ****
 1  2  14  15  16  17  18  19  20  21  22  24  25  26  27 0
 3-21G
 ****
 35  36  37  38  39  40  41  42  43  44  45 0
 3-21G
 ****


