%nproc=1
%NoSave
%Mem=1900MB
#P OB98/GEN NMR

erre ene a

0 1
  C      108.799     -72.712    -450.687
  O      108.154     -72.504    -451.924
  H      108.256     -73.478    -450.130
  H      108.787     -71.784    -450.111
  H      109.832     -73.047    -450.832
  P      108.978     -71.732    -453.063
  C      110.397     -73.586    -454.197
  O      109.225     -72.787    -454.249
  C      110.301     -74.744    -455.194
  O      111.633     -75.316    -455.370
  C      109.358     -75.875    -454.750
  O      108.691     -76.398    -455.906
  C      110.319     -76.934    -454.241
  O      109.755     -78.239    -454.273
  C      111.490     -76.738    -455.204
  N      114.381     -80.823    -455.607
  C      113.325     -80.391    -456.385
  N      112.936     -81.195    -457.397
  N      112.700     -79.257    -456.187
  C      113.203     -78.535    -455.157
  C      114.236     -78.859    -454.308
  C      114.910     -80.120    -454.528
  O      115.839     -80.567    -453.860
  N      114.402     -77.891    -453.349
  C      113.454     -77.000    -453.604
  N      112.701     -77.352    -454.691
  O      110.426     -71.568    -452.396
  O      108.413     -70.416    -453.484
  H      110.404     -78.860    -453.878
  H      110.496     -70.698    -451.964
  H      114.818     -81.707    -455.790
  H      113.261     -76.108    -453.026
  H      111.299     -77.184    -456.191
  H      110.615     -76.706    -453.210
  H      113.388     -82.066    -457.629
  H      108.620     -75.571    -454.003
  H      112.188     -80.872    -457.998
  H      109.996     -74.341    -456.168
  H      110.510     -73.992    -453.187
  H      111.270     -72.961    -454.422
  P      107.086     -76.323    -455.951
  C      106.539     -73.986    -456.950
  O      106.648     -75.384    -457.172
  O      106.735     -75.442    -454.661
  O      106.418     -77.657    -455.894
  H      105.896     -75.744    -454.270
  H      106.240     -73.503    -457.857
  H      107.486     -73.600    -456.636
  H      105.809     -73.801    -456.190

 6  7  8  9  10  11  12  13  14  15  26  29  33  34 0
 6-311+G(2d,p)
 ****
 36  38  39  40  41 0
 6-311+G(2d,p)
 ****
 1  2  3  4  5  16  17  18  19  20  21  22  23  24  25 0
 3-21G
 ****
 27  28  30  31  32  35  37  42  43  44  45  46  47 0
 3-21G
 ****
 48  49 0
 3-21G
 ****


