%nproc=1
%NoSave
%Mem=1900MB
#P OB98/GEN NMR

erre ene a

0 1
  C      -46.726    1405.078    1338.350
  O      -47.556    1406.150    1337.901
  P      -47.680    1407.451    1338.869
  C      -48.869    1406.135    1340.832
  O      -48.938    1407.165    1339.817
  C      -49.853    1406.480    1341.934
  O      -49.349    1407.575    1342.736
  C      -51.247    1406.898    1341.473
  O      -52.032    1405.800    1341.020
  C      -51.778    1407.612    1342.734
  O      -52.261    1406.646    1343.665
  C      -50.479    1408.286    1343.266
  N      -50.427    1409.701    1342.939
  C      -50.828    1410.610    1343.913
  O      -51.264    1410.236    1345.038
  N      -50.770    1411.951    1343.595
  C      -50.371    1412.441    1342.350
  O      -50.381    1413.635    1342.120
  C      -49.958    1411.477    1341.348
  C      -50.001    1410.145    1341.687
  O      -48.199    1408.513    1337.788
  O      -46.389    1407.800    1339.513
  H      -48.723    1408.089    1337.056
  H      -52.658    1407.176    1344.411
  H      -51.034    1412.575    1344.289
  H      -49.655    1411.821    1340.372
  H      -49.716    1409.422    1340.948
  H      -50.441    1408.168    1344.372
  H      -52.601    1408.313    1342.500
  H      -51.139    1407.626    1340.657
  H      -49.958    1405.581    1342.595
  H      -47.852    1406.117    1341.243
  H      -49.088    1405.180    1340.370
  P      -52.852    1406.020    1339.626
  C      -54.278    1408.112    1340.317
  O      -54.233    1406.740    1340.016
  O      -53.231    1404.527    1339.271
  O      -52.067    1406.712    1338.564
  H      -53.539    1404.000    1340.062
  H      -55.288    1408.487    1340.195
  H      -53.592    1408.714    1339.666
  H      -53.958    1408.246    1341.375
  H      -46.734    1404.292    1337.624
  H      -47.097    1404.706    1339.282
  H      -45.725    1405.433    1338.481

 3  4  5  6  7  8  9  10  11  12  13  24  28  29  30  31  32 0
 6-311+G(2d,p)
 ****
 33  34 0
 6-311+G(2d,p)
 ****
 1  2  14  15  16  17  18  19  20  21  22  23  25  26  27 0
 3-21G
 ****
 35  36  37  38  39  40  41  42  43  44  45 0
 3-21G
 ****


