%nproc=1
%NoSave
%Mem=1900MB
#P OB98/GEN NMR

erre ene a

0 1
  C       51.045     -37.303      37.999
  O       50.681     -38.666      37.904
  H       50.538     -36.751      37.203
  H       52.125     -37.185      37.874
  H       50.734     -36.892      38.963
  P       51.328     -39.703      38.940
  C       51.281     -39.948      41.512
  O       51.093     -39.080      40.400
  C       51.637     -39.142      42.758
  O       52.890     -38.456      42.571
  C       50.612     -38.072      43.129
  O       49.526     -38.645      43.838
  C       51.462     -37.164      44.001
  O       51.628     -37.759      45.304
  C       52.805     -37.169      43.247
  N       55.246     -32.881      42.063
  C       55.261     -33.613      43.234
  N       56.007     -33.116      44.243
  N       54.594     -34.726      43.405
  C       53.836     -35.065      42.337
  C       53.726     -34.411      41.129
  C       54.521     -33.218      40.930
  O       54.556     -32.553      39.897
  N       52.788     -35.003      40.321
  C       52.371     -36.043      41.018
  N       52.971     -36.120      42.255
  O       52.746     -40.103      38.672
  O       50.335     -40.957      38.915
  H       52.296     -38.464      45.214
  H       50.622     -41.621      38.261
  H       55.775     -32.026      41.992
  H       51.645     -36.770      40.679
  H       53.661     -37.099      43.929
  H       51.016     -36.179      44.151
  H       56.420     -32.195      44.225
  H       50.280     -37.512      42.249
  H       55.983     -33.609      45.128
  H       51.781     -39.851      43.585
  H       52.092     -40.637      41.257
  H       50.373     -40.530      41.700
  P       48.040     -38.041      43.729
  C       46.291     -37.961      41.825
  O       47.648     -38.157      42.177
  O       47.873     -36.682      44.315
  O       47.111     -39.158      44.390
  H       47.048     -39.076      45.375
  H       46.178     -38.067      40.766
  H       45.984     -36.979      42.120
  H       45.685     -38.688      42.323

 6  7  8  9  10  11  12  13  14  15  26  29  33  34 0
 6-311+G(2d,p)
 ****
 36  38  39  40  41 0
 6-311+G(2d,p)
 ****
 1  2  3  4  5  16  17  18  19  20  21  22  23  24  25 0
 3-21G
 ****
 27  28  30  31  32  35  37  42  43  44  45  46  47 0
 3-21G
 ****
 48  49 0
 3-21G
 ****


