%nproc=1
%NoSave
%Mem=1900MB
#P OB98/GEN NMR

erre ene a

0 1
  C     -171.269    -199.381     130.654
  O     -170.265    -200.333     130.932
  H     -171.053    -198.469     131.214
  H     -172.241    -199.764     130.972
  H     -171.299    -199.136     129.589
  P     -170.173    -201.651     130.026
  C     -168.373    -201.488     128.187
  O     -168.644    -201.770     129.552
  C     -166.893    -201.724     127.865
  O     -166.701    -201.593     126.427
  C     -165.941    -200.731     128.549
  O     -164.705    -201.418     128.787
  C     -165.761    -199.683     127.468
  O     -164.628    -198.881     127.710
  C     -165.712    -200.567     126.219
  N     -165.952    -199.810     124.991
  C     -164.908    -199.021     124.533
  O     -163.833    -198.913     125.125
  N     -165.144    -198.312     123.388
  C     -166.325    -198.273     122.707
  O     -166.494    -197.594     121.701
  C     -167.412    -199.094     123.262
  C     -167.180    -199.818     124.359
  O     -171.177    -201.751     128.926
  O     -170.308    -202.858     131.069
  H     -164.457    -198.294     126.940
  H     -170.731    -203.626     130.639
  H     -164.392    -197.741     123.036
  H     -168.365    -199.078     122.750
  H     -167.960    -200.435     124.794
  H     -164.733    -201.054     126.129
  H     -166.629    -199.017     127.430
  H     -166.339    -200.324     129.481
  H     -166.640    -202.758     128.126
  H     -168.629    -200.439     128.002
  H     -168.997    -202.124     127.551
  P     -164.052    -201.515     130.249
  C     -165.673    -203.148     131.408
  O     -164.369    -202.964     130.863
  O     -164.401    -200.378     131.155
  O     -162.473    -201.563     129.985
  H     -162.000    -201.188     130.751
  H     -165.765    -204.146     131.784
  H     -166.405    -202.986     130.644
  H     -165.828    -202.451     132.205

 6  7  8  9  10  11  12  13  14  15  16  26  31  32  33  34  35 0
 6-311+G(2d,p)
 ****
 36  37 0
 6-311+G(2d,p)
 ****
 1  2  3  4  5  17  18  19  20  21  22  23  24  25 0
 3-21G
 ****
 27  28  29  30  38  39  40  41  42  43  44  45 0
 3-21G
 ****


