%nproc=1
%NoSave
%Mem=1900MB
#P OB98/GEN NMR

erre ene a

0 1
  C     -162.199     892.059    -163.512
  O     -162.775     890.968    -162.782
  P     -162.385     890.823    -161.235
  C     -164.182     889.310    -160.127
  O     -162.883     889.392    -160.708
  C     -165.264     889.104    -161.195
  O     -164.917     887.989    -162.072
  C     -166.645     888.806    -160.618
  O     -167.631     889.309    -161.522
  C     -166.697     887.285    -160.654
  O     -168.029     886.798    -160.563
  C     -165.978     887.023    -161.980
  N     -166.768     882.408    -163.869
  C     -167.543     883.552    -163.951
  N     -168.674     883.460    -164.675
  N     -167.226     884.682    -163.376
  C     -166.040     884.639    -162.713
  C     -165.197     883.563    -162.551
  C     -165.571     882.309    -163.171
  O     -164.935     881.265    -163.114
  N     -164.106     883.901    -161.786
  C     -164.303     885.176    -161.486
  N     -165.444     885.671    -162.052
  O     -163.382     891.855    -160.518
  O     -160.958     891.154    -160.935
  H     -168.475     887.000    -161.413
  H     -162.885     892.629    -160.213
  H     -167.061     881.563    -164.321
  H     -163.656     885.776    -160.867
  H     -166.642     887.149    -162.841
  H     -166.128     886.877    -159.811
  H     -168.951     882.635    -165.184
  H     -166.831     889.210    -159.622
  H     -169.240     884.296    -164.788
  H     -165.315     890.000    -161.827
  H     -164.401     890.226    -159.565
  H     -164.187     888.495    -159.392
  P     -168.496     890.560    -161.028
  C     -168.711     892.184    -163.039
  O     -169.271     891.118    -162.321
  O     -167.399     891.691    -160.731
  O     -169.355     890.298    -159.828
  H     -167.738     892.327    -160.074
  H     -168.249     891.800    -163.956
  H     -167.941     892.716    -162.459
  H     -169.492     892.888    -163.308
  H     -162.544     892.033    -164.524
  H     -161.132     891.975    -163.497
  H     -162.490     892.984    -163.060

 3  4  5  6  7  8  9  10  11  12  23  26  30  31 0
 6-311+G(2d,p)
 ****
 33  35  36  37  38 0
 6-311+G(2d,p)
 ****
 1  2  13  14  15  16  17  18  19  20  21  22  24  25 0
 3-21G
 ****
 27  28  29  32  34  39  40  41  42  43  44  45  46  47  48  49 0
 3-21G
 ****


