%nproc=1
%NoSave
%Mem=1900MB
#P OB98/GEN NMR

erre ene a

0 1
  C      474.927     316.048     173.094
  O      473.506     315.908     172.957
  P      472.949     314.420     172.708
  C      471.016     313.266     174.015
  O      471.435     314.383     173.239
  C      469.917     313.677     175.008
  O      470.473     314.413     176.108
  C      468.849     314.587     174.409
  O      467.892     313.849     173.669
  C      468.220     315.159     175.675
  O      467.258     314.233     176.209
  C      469.427     315.283     176.622
  N      471.031     318.942     179.745
  C      470.556     317.675     180.034
  N      470.537     317.326     181.339
  N      470.144     316.826     179.126
  C      470.255     317.309     177.856
  C      470.703     318.544     177.448
  C      471.126     319.479     178.466
  O      471.523     320.625     178.269
  N      470.677     318.657     176.084
  C      470.239     317.483     175.662
  N      469.957     316.635     176.708
  O      473.745     313.549     173.793
  O      473.162     313.917     171.319
  H      466.608     314.055     175.499
  H      473.823     312.626     173.486
  H      471.323     319.558     180.486
  H      470.109     317.198     174.625
  H      469.189     314.940     177.631
  H      467.689     316.104     175.490
  H      470.902     317.896     182.085
  H      469.301     315.388     173.820
  H      470.227     316.388     181.566
  H      469.457     312.762     175.399
  H      471.865     312.855     174.568
  H      470.657     312.479     173.345
  P      467.914     314.025     172.064
  C      466.309     313.331     170.154
  O      466.538     313.387     171.544
  O      469.030     312.986     171.600
  O      468.212     315.419     171.610
  H      469.454     313.294     170.772
  H      467.204     313.009     169.615
  H      465.989     314.316     169.790
  H      465.509     312.612     169.958
  H      475.170     317.078     173.254
  H      475.407     315.703     172.202
  H      475.264     315.468     173.928

 3  4  5  6  7  8  9  10  11  12  23  26  30  31  33  0
 6-311+G(2d,p)
 ****
 35  36  37  38 0
 6-311+G(2d,p)
 ****
 1  2  13  14  15  16  17  18  19  20  21  22  24  25  27  28  29 0
 3-21G
 ****
 32  34  39  40  41  42  43  44  45  46  47  48  49 0
 3-21G
 ****


