%nproc=1
%NoSave
%Mem=1900MB
#P OB98/GEN NMR

erre ene a

0 1
  C       19.888    -422.533      53.615
  O       19.707    -421.495      54.582
  P       20.752    -420.274      54.509
  C       22.329    -421.201      56.353
  O       22.182    -420.832      54.983
  C       23.628    -420.639      56.938
  O       23.678    -420.869      58.380
  C       24.898    -421.268      56.336
  O       25.885    -420.229      56.288
  C       25.257    -422.318      57.377
  O       26.589    -422.794      57.247
  C       24.939    -421.547      58.649
  N       27.480    -424.734      61.728
  C       27.852    -424.042      60.614
  N       27.117    -423.224      59.849
  C       25.865    -423.118      60.336
  C       25.339    -423.744      61.455
  C       26.208    -424.585      62.173
  N       25.831    -425.292      63.297
  N       23.998    -423.406      61.623
  C       23.720    -422.647      60.577
  N       24.834    -422.377      59.827
  O       20.291    -419.312      55.708
  O       20.762    -419.577      53.190
  H       26.818    -423.353      58.018
  H       19.754    -418.574      55.363
  H       28.886    -424.198      60.305
  H       22.740    -422.269      60.319
  H       25.689    -420.773      58.869
  H       24.591    -423.181      57.264
  H       24.750    -421.675      55.327
  H       23.637    -419.552      56.779
  H       22.326    -422.289      56.447
  H       26.527    -425.878      63.737
  H       24.892    -425.226      63.650
  H       21.452    -420.843      56.915
  P       26.549    -419.853      54.879
  C       28.513    -421.503      55.026
  O       27.276    -421.208      54.403
  O       27.799    -418.976      55.366
  O       25.661    -419.170      53.892
  H       28.313    -419.437      56.057
  H       28.861    -422.480      54.672
  H       28.388    -421.541      56.111
  H       29.265    -420.747      54.761
  H       19.142    -423.287      53.757
  H       20.859    -422.966      53.734
  H       19.798    -422.123      52.631

 3  4  5  6  7  8  9  10  11  12  22  25  29  30  31  32 0
 6-311+G(2d,p)
 ****
 33  36  37 0
 6-311+G(2d,p)
 ****
 1  2  13  14  15  16  17  18  19  20  21  23  24  26 0
 3-21G
 ****
 27  28  34  35  38  39  40  41  42  43  44  45  46  47  48 0
 3-21G
 ****


