%nproc=1
%NoSave
%Mem=1900MB
#P OB98/GEN NMR

erre ene a

0 1
  C       14.462    -103.468     -26.750
  O       15.104    -102.540     -25.876
  P       16.598    -102.850     -25.385
  C       18.013    -101.171     -26.731
  O       17.444    -101.490     -25.466
  C       19.461    -101.655     -26.812
  O       19.891    -101.823     -28.178
  C       20.454    -100.686     -26.194
  O       20.391    -100.729     -24.779
  C       21.762    -101.169     -26.801
  O       22.284    -102.293     -26.073
  C       21.319    -101.614     -28.213
  N       21.695    -100.673     -29.256
  C       22.527    -101.173     -30.264
  O       22.931    -102.335     -30.215
  N       22.891    -100.337     -31.290
  C       22.469     -99.110     -31.304
  N       22.859     -98.330     -32.346
  C       21.602     -98.542     -30.255
  C       21.263     -99.368     -29.267
  O       17.247    -104.042     -26.004
  O       16.416    -103.049     -23.802
  H       21.546    -102.929     -25.993
  H       17.094    -103.675     -23.483
  H       21.271     -97.515     -30.314
  H       20.631     -99.031     -28.454
  H       21.767    -102.585     -28.462
  H       22.530    -100.390     -26.786
  H       20.240     -99.666     -26.542
  H       19.524    -102.628     -26.305
  H       23.463     -98.740     -33.046
  H       17.973    -100.090     -26.887
  H       22.543     -97.379     -32.472
  H       17.400    -101.625     -27.518
  P       19.919     -99.403     -24.013
  C       17.337     -99.312     -24.206
  O       18.457     -99.673     -23.423
  O       19.649     -98.374     -25.213
  O       20.913     -98.851     -23.044
  H       19.875     -97.471     -24.926
  H       16.457     -99.836     -23.819
  H       17.476     -99.588     -25.254
  H       17.166     -98.236     -24.129
  H       13.478    -103.117     -26.982
  H       14.397    -104.423     -26.271
  H       15.030    -103.560     -27.652

 3  4  5  6  7  8  9  10  11  12  13  23  27  28  29  30  32 0
 6-311+G(2d,p)
 ****
 34  35 0
 6-311+G(2d,p)
 ****
 1  2  14  15  16  17  18  19  20  21  22  24  25  26 0
 3-21G
 ****
 31  33  36  37  38  39  40  41  42  43  44  45  46 0
 3-21G
 ****


