%nproc=1
%NoSave
%Mem=1900MB
#P OB98/GEN NMR

erre ene a

0 1
  C      -42.775    -217.514     299.654
  O      -42.142    -216.428     300.294
  H      -42.540    -217.476     298.586
  H      -43.860    -217.434     299.775
  H      -42.424    -218.464     300.060
  P      -42.192    -216.410     301.901
  C      -43.975    -214.843     302.954
  O      -43.711    -216.078     302.306
  C      -43.932    -213.694     301.949
  O      -44.787    -213.986     300.814
  C      -44.401    -212.352     302.505
  O      -43.366    -211.687     303.224
  C      -44.738    -211.619     301.216
  O      -43.526    -211.165     300.583
  C      -45.389    -212.733     300.383
  N      -49.856    -210.887     298.835
  C      -48.569    -210.533     298.464
  N      -48.459    -209.535     297.559
  N      -47.493    -211.099     298.942
  C      -47.753    -212.069     299.848
  C      -48.980    -212.509     300.294
  C      -50.165    -211.885     299.754
  O      -51.327    -212.177     300.032
  N      -48.846    -213.524     301.210
  C      -47.542    -213.682     301.337
  N      -46.834    -212.817     300.530
  O      -41.407    -215.064     302.280
  O      -41.589    -217.596     302.575
  H      -43.076    -211.953     300.234
  H      -40.905    -215.215     303.106
  H      -50.652    -210.411     298.444
  H      -47.062    -214.405     301.980
  H      -45.184    -212.623     299.310
  H      -45.361    -210.740     301.380
  H      -49.248    -209.026     297.187
  H      -45.311    -212.464     303.111
  H      -47.532    -209.281     297.247
  H      -42.903    -213.618     301.569
  H      -43.220    -214.675     303.734
  H      -44.967    -214.892     303.427
  P      -43.792    -210.826     304.511
  C      -43.761    -208.285     303.959
  O      -44.498    -209.502     303.928
  O      -42.390    -210.288     305.064
  O      -44.561    -211.574     305.546
  H      -42.471    -210.071     306.011
  H      -44.354    -207.498     303.542
  H      -42.863    -208.397     303.387
  H      -43.511    -208.045     304.971

 6  7  8  9  10  11  12  13  14  15  26  29  33  34 0
 6-311+G(2d,p)
 ****
 36  38  39  40  41 0
 6-311+G(2d,p)
 ****
 1  2  3  4  5  16  17  18  19  20  21  22  23  24  25 0
 3-21G
 ****
 27  28  30  31  32  35  37  42  43  44  45  46  47 0
 3-21G
 ****
 48  49 0
 3-21G
 ****


