%nproc=1
%NoSave
%Mem=1900MB
#P OB98/GEN NMR

erre ene a

0 1
  C        2.288      20.762      -3.480
  O        2.948      19.548      -3.787
  P        2.593      18.215      -2.976
  C        5.086      17.893      -2.304
  O        3.933      17.341      -2.901
  C        6.359      17.204      -2.814
  O        7.494      17.853      -2.193
  C        6.475      15.727      -2.453
  O        7.446      15.124      -3.312
  C        7.015      15.793      -1.043
  O        7.632      14.572      -0.643
  C        7.956      17.023      -1.101
  N        7.934      17.782       0.163
  C        8.320      17.099       1.312
  O        8.740      15.943       1.295
  N        8.127      17.761       2.493
  C        7.553      18.991       2.623
  O        7.110      19.431       3.677
  C        7.391      19.751       1.373
  C        7.561      19.111       0.214
  O        1.668      17.411      -4.004
  O        1.909      18.438      -1.671
  H        7.918      14.691       0.293
  H        0.727      17.568      -3.804
  H        8.271      17.213       3.333
  H        7.080      20.784       1.441
  H        7.398      19.632      -0.725
  H        8.992      16.726      -1.299
  H        6.187      15.986      -0.350
  H        5.531      15.176      -2.504
  H        6.439      17.345      -3.898
  H        5.007      17.803      -1.217
  H        5.151      18.965      -2.523
  P        6.995      13.852      -4.177
  C        8.366      12.191      -2.781
  O        8.180      12.780      -4.052
  O        6.531      14.138      -5.566
  O        5.834      13.201      -3.284
  H        5.289      12.608      -3.834
  H        8.779      11.188      -2.914
  H        7.423      12.116      -2.232
  H        9.074      12.793      -2.205
  H        2.653      21.538      -4.120
  H        2.477      21.023      -2.460
  H        1.235      20.643      -3.628

 3  4  5  6  7  8  9  10  11  12  13  23  28  29  30  31  32 0
 6-311+G(2d,p)
 ****
 33  34 0
 6-311+G(2d,p)
 ****
 1  2  14  15  16  17  18  19  20  21  22  24  25  26  27 0
 3-21G
 ****
 35  36  37  38  39  40  41  42  43  44  45 0
 3-21G
 ****


