%nproc=1
%NoSave
%Mem=1900MB
#P OB98/GEN NMR

erre ene a

0 1
  C     -132.200      77.966     -47.487
  O     -133.465      78.578     -47.314
  H     -131.686      78.451     -48.322
  H     -132.309      76.903     -47.720
  H     -131.596      78.086     -46.584
  P     -134.476      77.939     -46.248
  C     -133.472      79.351     -44.326
  O     -133.733      78.046     -44.833
  C     -134.259      79.580     -43.040
  O     -135.671      79.647     -43.323
  C     -134.092      78.456     -42.027
  O     -132.838      78.541     -41.381
  C     -135.302      78.687     -41.143
  O     -135.068      79.744     -40.204
  C     -136.370      79.097     -42.182
  N     -137.228      77.986     -42.579
  C     -138.366      77.777     -41.792
  O     -138.603      78.510     -40.833
  N     -139.192      76.726     -42.104
  C     -138.920      75.965     -43.117
  N     -139.778      74.942     -43.371
  C     -137.739      76.159     -43.979
  C     -136.942      77.175     -43.653
  O     -135.014      76.576     -46.560
  O     -135.639      79.032     -46.130
  H     -134.243      79.508     -39.736
  H     -136.340      78.856     -46.785
  H     -137.554      75.503     -44.816
  H     -136.053      77.389     -44.237
  H     -137.007      79.897     -41.785
  H     -135.560      77.793     -40.577
  H     -134.211      77.485     -42.518
  H     -133.954      80.544     -42.615
  H     -140.571      74.840     -42.746
  H     -133.786      80.065     -45.094
  H     -139.717      74.343     -44.179
  H     -132.401      79.487     -44.143
  P     -132.318      77.344     -40.450
  C     -130.561      76.800     -42.259
  O     -131.623      76.297     -41.453
  O     -133.334      76.767     -39.525
  O     -131.065      77.994     -39.692
  H     -131.357      78.625     -38.990
  H     -130.182      76.015     -42.880
  H     -129.778      77.166     -41.629
  H     -130.926      77.596     -42.874

 6  7  8  9  10  11  12  13  14  15  16  26  30  31  32  33  35 0
 6-311+G(2d,p)
 ****
 37  38 0
 6-311+G(2d,p)
 ****
 1  2  3  4  5  17  18  19  20  21  22  23  24  25 0
 3-21G
 ****
 27  28  29  34  36  39  40  41  42  43  44  45  46 0
 3-21G
 ****


