%nproc=1
%NoSave
%Mem=1900MB
#P OB98/GEN NMR

erre ene a

0 1
  C     -498.309     499.913     -58.116
  O     -498.747     500.386     -56.861
  H     -498.445     498.830     -58.146
  H     -497.247     500.140     -58.249
  H     -498.888     500.359     -58.927
  P     -498.966     501.957     -56.659
  C     -498.016     502.046     -54.258
  O     -499.159     502.212     -55.084
  C     -498.366     501.238     -52.999
  O     -498.697     499.880     -53.389
  C     -497.182     501.156     -52.036
  O     -497.598     501.010     -50.679
  C     -496.478     499.882     -52.476
  O     -495.668     499.306     -51.451
  C     -497.665     499.013     -52.888
  N     -496.170     494.222     -53.807
  C     -496.209     494.913     -52.609
  N     -495.797     494.231     -51.512
  N     -496.596     496.154     -52.501
  C     -496.907     496.730     -53.688
  C     -496.886     496.162     -54.937
  C     -496.493     494.771     -55.043
  O     -496.420     494.118     -56.080
  N     -497.265     497.059     -55.908
  C     -497.506     498.174     -55.244
  N     -497.332     498.018     -53.885
  O     -500.439     502.210     -57.233
  O     -497.958     502.842     -57.327
  H     -494.908     499.901     -51.317
  H     -500.553     503.143     -57.483
  H     -495.894     493.261     -53.831
  H     -497.825     499.107     -55.687
  H     -498.071     498.477     -52.017
  H     -495.822     500.126     -53.311
  H     -495.312     493.348     -51.586
  H     -496.516     502.018     -52.112
  H     -495.525     494.799     -50.705
  H     -499.268     501.656     -52.524
  H     -497.668     503.044     -53.986
  H     -497.214     501.559     -54.816
  P     -497.001     502.014     -49.584
  C     -495.938     500.102     -48.084
  O     -496.772     501.241     -48.204
  O     -498.216     503.002     -49.268
  O     -495.777     502.756     -50.026
  H     -497.994     503.912     -49.548
  H     -495.943     499.762     -47.070
  H     -494.939     500.360     -48.369
  H     -496.302     499.325     -48.723

 6  7  8  9  10  11  12  13  14  15  26  29  33  34 0
 6-311+G(2d,p)
 ****
 36  38  39  40  41 0
 6-311+G(2d,p)
 ****
 1  2  3  4  5  16  17  18  19  20  21  22  23  24  25 0
 3-21G
 ****
 27  28  30  31  32  35  37  42  43  44  45  46  47 0
 3-21G
 ****
 48  49 0
 3-21G
 ****


