%nproc=1
%NoSave
%Mem=1900MB
#P OB98/GEN NMR

erre ene a

0 1
  C      326.884     -22.190    -443.893
  O      326.200     -23.327    -443.364
  P      324.624     -23.422    -443.656
  C      323.803     -22.613    -441.329
  O      323.867     -22.349    -442.724
  C      322.474     -22.150    -440.717
  O      322.335     -20.705    -440.798
  C      321.242     -22.764    -441.393
  O      320.241     -22.942    -440.393
  C      320.789     -21.660    -442.340
  O      319.423     -21.826    -442.710
  C      321.097     -20.420    -441.492
  N      321.205     -19.194    -442.293
  C      320.082     -18.362    -442.332
  O      319.040     -18.707    -441.770
  N      320.143     -17.185    -443.036
  C      321.232     -16.890    -443.690
  N      321.234     -15.707    -444.368
  C      322.419     -17.760    -443.728
  C      322.337     -18.882    -443.011
  O      324.214     -24.834    -443.027
  O      324.275     -23.354    -445.104
  H      318.874     -21.739    -441.895
  H      323.689     -25.349    -443.668
  H      323.291     -17.484    -444.311
  H      323.162     -19.590    -442.978
  H      320.324     -20.259    -440.738
  H      321.406     -21.668    -443.260
  H      321.450     -23.717    -441.894
  H      322.476     -22.417    -439.650
  H      320.401     -15.135    -444.307
  H      324.630     -22.104    -440.815
  H      322.017     -15.378    -444.919
  H      323.964     -23.689    -441.159
  P      319.646     -24.416    -440.155
  C      317.451     -23.865    -441.381
  O      318.638     -24.646    -441.387
  O      318.623     -24.158    -438.942
  O      320.592     -25.526    -439.847
  H      318.236     -25.011    -438.661
  H      316.921     -24.029    -442.325
  H      317.696     -22.796    -441.295
  H      316.804     -24.173    -440.556
  H      327.920     -22.244    -443.632
  H      326.459     -21.297    -443.485
  H      326.785     -22.178    -444.958

 3  4  5  6  7  8  9  10  11  12  13  21  23  27  28  29  30  32 0
 6-311+G(2d,p)
 ****
 34  35 0
 6-311+G(2d,p)
 ****
 1  2  14  15  16  17  18  19  20  22  24  25  26 0
 3-21G
 ****
 31  33  36  37  38  39  40  41  42  43  44  45  46 0
 3-21G
 ****


