%nproc=1
%NoSave
%Mem=1900MB
#P OB98/GEN NMR

erre ene a

0 1
  C     -279.440    -539.206    -898.640
  O     -278.472    -538.946    -897.650
  H     -280.294    -539.727    -898.180
  H     -279.030    -539.848    -899.430
  H     -279.808    -538.274    -899.090
  P     -277.132    -538.217    -898.140
  C     -275.479    -536.505    -897.060
  O     -276.756    -537.149    -897.000
  C     -275.518    -535.169    -896.320
  O     -276.384    -534.222    -897.020
  C     -276.042    -535.250    -894.880
  O     -275.027    -535.670    -894.000
  C     -276.497    -533.827    -894.640
  O     -275.389    -532.984    -894.300
  C     -277.079    -533.448    -896.010
  N     -281.654    -531.732    -894.680
  C     -280.415    -531.202    -894.450
  N     -280.344    -530.079    -893.680
  N     -279.289    -531.731    -894.880
  C     -279.490    -532.867    -895.600
  C     -280.672    -533.481    -895.920
  C     -281.905    -532.856    -895.460
  O     -283.047    -533.241    -895.690
  N     -280.488    -534.616    -896.680
  C     -279.165    -534.706    -896.780
  N     -278.512    -533.671    -896.140
  O     -277.621    -537.290    -899.360
  O     -276.027    -539.117    -898.560
  H     -275.002    -533.277    -893.450
  H     -276.910    -537.186    -900.000
  H     -282.472    -531.271    -894.330
  H     -278.634    -535.470    -897.330
  H     -276.922    -532.387    -896.250
  H     -277.198    -533.761    -893.830
  H     -281.097    -529.829    -893.060
  H     -276.917    -535.936    -894.820
  H     -279.431    -529.704    -893.470
  H     -274.515    -534.764    -896.330
  H     -275.237    -536.326    -898.120
  H     -274.720    -537.163    -896.630
  P     -275.454    -536.360    -892.610
  C     -274.344    -538.004    -890.930
  O     -274.272    -537.367    -892.200
  O     -276.647    -537.364    -893.050
  O     -275.905    -535.413    -891.550
  H     -277.161    -537.609    -892.280
  H     -273.493    -538.639    -890.801
  H     -275.238    -538.589    -890.875
  H     -274.355    -537.262    -890.159

 6  7  8  9  10  11  12  13  14  15  26  29  33  34 0
 6-311+G(2d,p)
 ****
 36  38  39  40  41 0
 6-311+G(2d,p)
 ****
 1  2  3  4  5  16  17  18  19  20  21  22  23  24  25 0
 3-21G
 ****
 27  28  30  31  32  35  37  42  43  44  45  46  47 0
 3-21G
 ****
 48  49 0
 3-21G
 ****


