%nproc=1
%NoSave
%Mem=1900MB
#P OB98/GEN NMR

erre ene a

0 1
  C      401.168      79.679     272.396
  O      402.562      79.845     272.539
  H      400.983      78.977     271.577
  H      400.694      80.633     272.151
  H      400.735      79.270     273.312
  P      403.109      80.883     273.632
  C      403.641      83.022     272.282
  O      402.700      82.349     273.121
  C      403.690      84.511     272.636
  O      402.478      85.128     272.121
  C      403.749      84.757     274.152
  O      404.827      85.604     274.540
  C      402.333      85.214     274.487
  O      402.238      86.035     275.637
  C      401.866      85.879     273.192
  N      400.413      85.908     273.027
  C      399.715      86.930     273.668
  O      400.232      87.826     274.339
  N      398.357      86.908     273.504
  C      397.638      85.987     272.802
  O      396.422      86.025     272.688
  C      398.427      84.919     272.164
  C      399.757      84.928     272.307
  O      404.546      80.728     274.010
  O      402.144      80.665     274.893
  H      401.303      86.049     275.922
  H      402.604      80.130     275.566
  H      397.844      87.651     273.955
  H      397.895      84.166     271.604
  H      400.373      84.157     271.849
  H      402.229      86.912     273.128
  H      401.720      84.327     274.676
  H      403.955      83.826     274.689
  H      404.538      84.971     272.115
  H      403.317      82.882     271.242
  H      404.631      82.575     272.411
  P      405.906      85.245     275.659
  C      405.661      87.210     277.387
  O      405.400      85.854     277.049
  O      407.330      85.495     275.291
  O      405.727      83.651     275.853
  H      406.611      83.292     276.078
  H      405.245      87.424     278.349
  H      405.217      87.852     276.655
  H      406.718      87.375     277.411

 6  7  8  9  10  11  12  13  14  15  16  26  31  32  33  34  35 0
 6-311+G(2d,p)
 ****
 36  37 0
 6-311+G(2d,p)
 ****
 1  2  3  4  5  17  18  19  20  21  22  23  24  25 0
 3-21G
 ****
 27  28  29  30  38  39  40  41  42  43  44  45 0
 3-21G
 ****


