%nproc=1
%NoSave
%Mem=1900MB
#P OB98/GEN NMR

erre ene a

0 1
  C     -127.623     263.837      91.759
  O     -127.889     262.623      91.082
  P     -127.511     262.437      89.538
  C     -129.919     263.181      89.072
  O     -128.873     262.291      88.706
  C     -130.814     263.514      87.876
  O     -131.863     264.422      88.300
  C     -130.071     264.169      86.701
  O     -130.645     263.646      85.496
  C     -130.409     265.639      86.858
  O     -130.263     266.362      85.643
  C     -131.840     265.547      87.398
  N     -132.266     266.770      88.060
  C     -133.129     267.608      87.351
  O     -133.398     267.366      86.172
  N     -133.656     268.703      87.993
  C     -133.206     269.032      89.165
  N     -133.801     270.082      89.794
  C     -132.108     268.309      89.838
  C     -131.717     267.176      89.257
  O     -126.498     261.375      89.261
  O     -126.965     263.876      89.089
  H     -126.085     263.769      88.679
  H     -129.352     266.229      85.303
  H     -131.681     268.693      90.753
  H     -130.937     266.558      89.687
  H     -132.546     265.324      86.584
  H     -129.745     266.090      87.605
  H     -128.997     263.962      86.709
  H     -131.298     262.587      87.548
  H     -134.577     270.529      89.322
  H     -129.465     264.106      89.443
  H     -133.747     270.211      90.804
  H     -130.509     262.747      89.887
  P     -129.669     263.351      84.252
  C     -130.895     265.103      82.775
  O     -130.443     263.770      82.910
  O     -129.716     261.747      84.179
  O     -128.253     263.811      84.390
  H     -128.899     261.424      83.754
  H     -131.452     265.187      81.841
  H     -130.045     265.790      82.740
  H     -131.555     265.373      83.605
  H     -127.949     263.758      92.775
  H     -128.147     264.636      91.278
  H     -126.572     264.035      91.736

 3  4  5  6  7  8  9  10  11  12  13  24  27  28  29  30  32 0
 6-311+G(2d,p)
 ****
 34  35 0
 6-311+G(2d,p)
 ****
 1  2  14  15  16  17  18  19  20  21  22  23  25  26 0
 3-21G
 ****
 31  33  36  37  38  39  40  41  42  43  44  45  46 0
 3-21G
 ****


