%nproc=1
%NoSave
%Mem=1900MB
#P OB98/GEN NMR

erre ene a

0 1
  C      407.038    -409.437    -772.997
  O      406.448    -410.645    -773.450
  P      404.877    -410.836    -773.221
  C      403.423    -410.483    -771.085
  O      404.641    -410.968    -771.648
  C      403.506    -410.535    -769.555
  O      404.397    -409.502    -769.064
  C      402.175    -410.287    -768.863
  O      401.349    -411.441    -768.881
  C      402.615    -409.885    -767.464
  O      402.881    -411.037    -766.654
  C      403.919    -409.112    -767.759
  N      403.745    -407.653    -767.658
  C      403.872    -407.113    -766.388
  O      404.100    -407.799    -765.388
  N      403.698    -405.757    -766.296
  C      403.364    -404.921    -767.320
  O      403.162    -403.730    -767.161
  C      403.214    -405.563    -768.643
  C      403.399    -406.879    -768.745
  O      404.582    -412.308    -773.772
  O      404.019    -409.805    -773.893
  H      403.368    -411.667    -767.218
  H      403.698    -412.339    -774.196
  H      403.809    -405.343    -765.384
  H      402.935    -404.927    -769.478
  H      403.279    -407.362    -769.703
  H      404.703    -409.409    -767.053
  H      401.863    -409.291    -766.948
  H      401.654    -409.434    -769.334
  H      403.909    -411.510    -769.259
  H      402.602    -411.117    -771.430
  H      403.250    -409.461    -771.423
  P      399.764    -411.210    -768.788
  C      398.369    -409.551    -767.340
  O      399.548    -410.302    -767.488
  O      399.275    -412.677    -768.367
  O      399.180    -410.694    -770.065
  H      399.934    -413.140    -767.812
  H      397.501    -410.074    -767.751
  H      398.481    -408.589    -767.843
  H      398.199    -409.372    -766.274
  H      408.085    -409.448    -773.215
  H      406.895    -409.344    -771.941
  H      406.579    -408.608    -773.493

 3  4  5  6  7  8  9  10  11  12  13  23  28  29  30  31  32 0
 6-311+G(2d,p)
 ****
 33  34 0
 6-311+G(2d,p)
 ****
 1  2  14  15  16  17  18  19  20  21  22  24  25  26 0
 3-21G
 ****
 27  35  36  37  38  39  40  41  42  43  44  45 0
 3-21G
 ****


