%nproc=1
%NoSave
%Mem=1900MB
#P OB98/GEN NMR

erre ene a

0 1
  C      329.857    -817.029     -64.607
  O      329.478    -818.335     -64.225
  H      329.825    -816.961     -65.700
  H      330.875    -816.807     -64.277
  H      329.163    -816.293     -64.195
  P      329.507    -818.718     -62.670
  C      327.001    -819.303     -62.453
  O      328.047    -818.405     -62.085
  C      326.012    -818.602     -63.389
  O      326.713    -818.298     -64.625
  C      324.801    -819.483     -63.726
  O      323.551    -818.835     -63.482
  C      325.085    -819.941     -65.158
  O      323.939    -820.261     -65.916
  C      325.925    -818.792     -65.725
  N      326.790    -819.185     -66.836
  C      326.304    -818.990     -68.125
  O      325.214    -818.490     -68.400
  N      327.134    -819.385     -69.140
  C      328.368    -819.961     -68.997
  O      329.067    -820.284     -69.939
  C      328.813    -820.158     -67.610
  C      328.016    -819.775     -66.608
  O      330.635    -818.139     -61.881
  O      329.557    -820.321     -62.668
  H      324.243    -820.716     -66.729
  H      330.469    -820.619     -62.480
  H      326.800    -819.240     -70.079
  H      329.781    -820.620     -67.458
  H      328.322    -819.906     -65.576
  H      325.285    -817.980     -66.074
  H      325.706    -820.847     -65.107
  H      324.766    -820.362     -63.075
  H      325.712    -817.648     -62.940
  H      326.498    -819.621     -61.538
  H      327.429    -820.178     -62.952
  P      322.463    -819.338     -62.429
  C      322.499    -817.128     -61.027
  O      322.679    -818.531     -61.065
  O      322.303    -820.823     -62.329
  O      321.080    -818.739     -63.008
  H      320.382    -819.383     -62.778
  H      322.687    -816.771     -60.036
  H      321.494    -816.890     -61.308
  H      323.180    -816.662     -61.709

 6  7  8  9  10  11  12  13  14  15  16  26  31  32  33  34  35 0
 6-311+G(2d,p)
 ****
 36  37 0
 6-311+G(2d,p)
 ****
 1  2  3  4  5  17  18  19  20  21  22  23  24  25 0
 3-21G
 ****
 27  28  29  30  38  39  40  41  42  43  44  45 0
 3-21G
 ****


