%nproc=1
%NoSave
%Mem=1900MB
#P OB98/GEN NMR

erre ene a

0 1
  C       33.165    -342.326    -177.363
  O       32.107    -342.570    -176.464
  H       33.506    -343.280    -177.772
  H       33.996    -341.852    -176.834
  H       32.846    -341.681    -178.190
  P       31.140    -341.360    -176.063
  C       32.607    -340.853    -173.998
  O       31.991    -340.329    -175.168
  C       31.696    -340.749    -172.775
  O       32.121    -341.675    -171.750
  C       31.744    -339.356    -172.130
  O       30.892    -338.387    -172.716
  C       31.323    -339.659    -170.696
  O       29.896    -339.673    -170.570
  C       31.892    -341.066    -170.464
  N       34.226    -339.800    -166.094
  C       32.927    -339.540    -166.495
  N       32.176    -338.799    -165.648
  N       32.428    -339.953    -167.627
  C       33.321    -340.600    -168.413
  C       34.640    -340.905    -168.133
  C       35.164    -340.487    -166.844
  O       36.312    -340.683    -166.446
  N       35.235    -341.575    -169.172
  C       34.308    -341.611    -170.109
  N       33.122    -341.055    -169.686
  O       30.144    -342.011    -174.982
  O       30.375    -340.746    -177.194
  H       29.550    -340.439    -171.065
  H       29.297    -341.531    -174.981
  H       34.549    -339.476    -165.194
  H       34.433    -342.047    -171.095
  H       31.185    -341.709    -169.930
  H       31.695    -338.907    -169.997
  H       32.552    -338.357    -164.820
  H       32.777    -338.984    -172.114
  H       31.326    -338.366    -166.018
  H       30.675    -341.027    -173.058
  H       33.519    -340.272    -173.836
  H       32.909    -341.891    -174.162
  P       31.513    -337.043    -173.328
  C       30.677    -335.635    -171.303
  O       31.765    -336.044    -172.102
  O       30.263    -336.397    -174.099
  O       32.681    -337.246    -174.240
  H       30.292    -336.625    -175.042
  H       31.026    -334.974    -170.537
  H       30.222    -336.493    -170.854
  H       29.958    -335.128    -171.912

 6  7  8  9  10  11  12  13  14  15  26  29  33  34 0
 6-311+G(2d,p)
 ****
 36  38  39  40  41 0
 6-311+G(2d,p)
 ****
 1  2  3  4  5  16  17  18  19  20  21  22  23  24  25 0
 3-21G
 ****
 27  28  30  31  32  35  37  42  43  44  45  46  47 0
 3-21G
 ****
 48  49 0
 3-21G
 ****


