%nproc=1
%NoSave
%Mem=1900MB
#P OB98/GEN NMR

erre ene a

0 1
  C       39.376     180.797     -31.291
  O       40.659     181.330     -31.574
  P       41.761     181.307     -30.411
  C       42.964     179.442     -29.063
  O       41.818     179.817     -29.815
  C       42.571     178.571     -27.869
  O       41.740     179.340     -26.959
  C       41.780     177.318     -28.257
  O       42.110     176.250     -27.358
  C       40.342     177.709     -27.986
  O       39.519     176.564     -27.772
  C       40.517     178.605     -26.759
  N       36.570     179.708     -23.804
  C       37.653     178.891     -23.549
  N       37.633     178.211     -22.383
  N       38.666     178.758     -24.364
  C       38.545     179.494     -25.495
  C       37.529     180.352     -25.852
  C       36.407     180.481     -24.946
  O       35.406     181.165     -25.126
  N       37.776     180.949     -27.060
  C       38.918     180.425     -27.459
  N       39.405     179.510     -26.560
  O       41.064     182.153     -29.244
  O       43.076     181.898     -30.788
  H       38.645     176.893     -27.488
  H       41.473     183.037     -29.187
  H       35.806     179.769     -23.149
  H       39.418     180.650     -28.391
  H       40.634     178.011     -25.843
  H       39.937     178.268     -28.837
  H       36.851     178.219     -21.745
  H       41.936     176.985     -29.289
  H       38.393     177.570     -22.194
  H       43.480     178.299     -27.320
  H       43.462     180.341     -28.700
  H       43.664     178.901     -29.709
  P       41.976     174.763     -27.952
  C       43.161     173.495     -29.891
  O       42.895     174.732     -29.262
  O       40.485     174.732     -28.530
  O       42.224     173.681     -26.955
  H       40.149     173.816     -28.549
  H       42.736     173.512     -30.898
  H       42.739     172.650     -29.340
  H       44.243     173.360     -29.965
  H       38.755     180.882     -32.158
  H       38.935     181.340     -30.482
  H       39.470     179.766     -31.020

 3  4  5  6  7  8  9  10  11  12  23  26  30  31 0
 6-311+G(2d,p)
 ****
 33  35  36  37  38 0
 6-311+G(2d,p)
 ****
 1  2  13  14  15  16  17  18  19  20  21  22  24  25 0
 3-21G
 ****
 27  28  29  32  34  39  40  41  42  43  44  45  46  47  48  49 0
 3-21G
 ****


