%nproc=1
%NoSave
%Mem=1900MB
#P OB98/GEN NMR

erre ene a

0 1
  C     -102.668    -522.330     458.238
  O     -103.798    -522.124     459.092
  P     -104.684    -523.418     459.433
  C     -104.658    -522.923     461.998
  O     -104.357    -523.842     460.938
  C     -104.013    -523.376     463.308
  O     -102.581    -523.447     463.189
  C     -104.258    -522.439     464.478
  O     -105.549    -522.646     465.063
  C     -103.173    -522.869     465.451
  O     -103.608    -524.034     466.172
  C     -102.013    -523.229     464.507
  N      -99.318    -519.807     467.108
  C     -100.263    -520.711     467.549
  N     -100.524    -520.709     468.885
  N     -100.912    -521.527     466.774
  C     -100.538    -521.432     465.456
  C      -99.618    -520.559     464.897
  C      -98.927    -519.651     465.774
  O      -98.093    -518.799     465.431
  N      -99.495    -520.781     463.531
  C     -100.328    -521.756     463.290
  N     -100.999    -522.177     464.421
  O     -103.999    -524.579     458.563
  O     -106.134    -523.263     459.099
  H     -103.864    -524.704     465.512
  H     -104.643    -525.280     458.341
  H      -98.853    -519.182     467.772
  H     -100.489    -522.201     462.320
  H     -101.507    -524.166     464.807
  H     -102.937    -522.105     466.197
  H     -100.023    -520.166     469.557
  H     -104.120    -521.380     464.192
  H     -101.200    -521.392     469.225
  H     -104.384    -524.377     463.551
  H     -105.746    -522.859     462.130
  H     -104.313    -521.921     461.711
  P     -106.715    -521.584     464.673
  C     -108.222    -523.470     463.693
  O     -107.532    -522.259     463.462
  O     -105.888    -520.385     463.987
  O     -107.537    -521.111     465.827
  H     -106.337    -519.544     464.113
  H     -108.741    -523.467     464.652
  H     -107.493    -524.314     463.675
  H     -108.938    -523.629     462.896
  H     -102.161    -521.400     458.086
  H     -102.998    -522.714     457.296
  H     -101.999    -523.030     458.694

 3  4  5  6  7  8  9  10  11  12  23  26  30  31  33  0
 6-311+G(2d,p)
 ****
 35  36  37  38 0
 6-311+G(2d,p)
 ****
 1  2  13  14  15  16  17  18  19  20  21  22  24  25  27  28  29 0
 3-21G
 ****
 32  34  39  40  41  42  43  44  45  46  47  48  49 0
 3-21G
 ****


