%nproc=1
%NoSave
%Mem=1900MB
#P OB98/GEN NMR

erre ene a

0 1
  C      -28.251     -84.296      96.687
  O      -29.169     -83.802      95.732
  H      -27.729     -83.449      97.138
  H      -27.514     -84.950      96.214
  H      -28.779     -84.839      97.476
  P      -29.985     -84.861      94.842
  C      -28.121     -85.504      93.160
  O      -29.307     -84.755      93.387
  C      -27.547     -85.177      91.783
  O      -26.312     -85.887      91.555
  C      -28.439     -85.563      90.606
  O      -29.553     -84.699      90.435
  C      -27.437     -85.453      89.467
  O      -27.219     -84.067      89.151
  C      -26.175     -86.076      90.117
  N      -26.013     -87.494      89.801
  C      -25.605     -87.804      88.498
  O      -25.399     -86.910      87.679
  N      -25.474     -89.124      88.140
  C      -25.746     -90.056      89.002
  N      -25.646     -91.346      88.582
  C      -26.162     -89.776      90.390
  C      -26.281     -88.490      90.716
  O      -31.475     -84.734      94.863
  O      -29.459     -86.288      95.339
  H      -26.600     -84.039      88.400
  H      -29.945     -86.979      94.825
  H      -26.385     -90.588      91.066
  H      -26.597     -88.203      91.716
  H      -25.272     -85.539      89.807
  H      -27.767     -85.949      88.553
  H      -28.762     -86.606      90.688
  H      -27.306     -84.104      91.773
  H      -25.399     -91.500      87.614
  H      -28.370     -86.568      93.239
  H      -26.098     -92.103      89.087
  H      -27.369     -85.256      93.914
  P      -30.949     -85.355      89.992
  C      -30.751     -84.960      87.421
  O      -31.395     -84.616      88.636
  O      -31.971     -84.793      91.082
  O      -30.965     -86.849      89.900
  H      -32.076     -85.423      91.824
  H      -31.164     -84.380      86.622
  H      -30.900     -86.000      87.220
  H      -29.703     -84.759      87.503

 6  7  8  9  10  11  12  13  14  15  16  26  30  31  32  33  35 0
 6-311+G(2d,p)
 ****
 37  38 0
 6-311+G(2d,p)
 ****
 1  2  3  4  5  17  18  19  20  21  22  23  24  25 0
 3-21G
 ****
 27  28  29  34  36  39  40  41  42  43  44  45  46 0
 3-21G
 ****


