%nproc=1
%NoSave
%Mem=1900MB
#P OB98/GEN NMR

erre ene a

0 1
  C       58.842     -26.156     157.834
  O       58.752     -26.028     159.239
  H       58.166     -26.940     157.483
  H       58.549     -25.208     157.376
  H       59.870     -26.388     157.538
  P       59.173     -27.312     160.104
  C       61.427     -28.474     160.654
  O       60.740     -27.533     159.842
  C       62.758     -28.849     160.011
  O       62.534     -29.650     158.835
  C       63.599     -27.664     159.547
  O       64.303     -27.063     160.624
  C       64.546     -28.352     158.577
  O       65.595     -29.015     159.309
  C       63.630     -29.391     157.915
  N       62.491     -30.790     153.128
  C       62.964     -31.486     154.182
  N       63.223     -31.049     155.432
  C       62.923     -29.745     155.548
  C       62.413     -28.908     154.570
  C       62.198     -29.476     153.304
  N       61.777     -28.734     152.212
  N       62.250     -27.626     155.060
  C       62.671     -27.688     156.305
  N       63.081     -28.948     156.648
  O       58.477     -28.518     159.309
  O       58.754     -27.279     161.536
  H       65.965     -28.358     159.927
  H       57.630     -28.738     159.738
  H       63.167     -32.536     153.999
  H       62.703     -26.852     156.990
  H       64.140     -30.344     157.743
  H       65.026     -27.659     157.881
  H       62.995     -26.933     159.000
  H       63.317     -29.465     160.729
  H       60.814     -29.376     160.767
  H       62.104     -29.101     151.322
  H       61.835     -27.731     152.340
  H       61.592     -28.031     161.640
  P       64.692     -25.514     160.487
  C       63.301     -23.342     160.286
  O       63.353     -24.742     160.049
  O       65.596     -25.489     159.166
  O       65.423     -24.935     161.650
  H       66.467     -25.095     159.368
  H       62.361     -22.958     159.949
  H       64.094     -22.860     159.754
  H       63.409     -23.153     161.334

 6  7  8  9  10  11  12  13  14  15  25  28  32  33  34  35 0
 6-311+G(2d,p)
 ****
 36  39  40 0
 6-311+G(2d,p)
 ****
 1  2  3  4  5  16  17  18  19  20  21  22  23  24 0
 3-21G
 ****
 26  27  29  30  31  37  38  41  42  43  44  45  46  47  48 0
 3-21G
 ****


