%nproc=1
%NoSave
%Mem=1900MB
#P OB98/GEN NMR

erre ene a

0 1
  C     1386.868      20.285    -266.750
  O     1387.592      19.753    -265.644
  P     1388.060      18.224    -265.725
  C     1388.285      17.968    -263.143
  O     1387.625      17.549    -264.330
  C     1387.394      17.709    -261.936
  O     1386.268      18.614    -261.931
  C     1386.770      16.316    -261.881
  O     1387.660      15.350    -261.367
  C     1385.629      16.540    -260.914
  O     1386.092      16.524    -259.552
  C     1385.150      17.964    -261.279
  N     1380.712      20.150    -262.348
  C     1381.701      20.538    -261.453
  N     1381.443      21.623    -260.707
  N     1382.830      19.917    -261.315
  C     1382.952      18.836    -262.133
  C     1382.055      18.370    -263.051
  C     1380.792      19.058    -263.195
  O     1379.853      18.731    -263.931
  N     1382.540      17.239    -263.704
  C     1383.729      17.040    -263.174
  N     1384.017      17.945    -262.190
  O     1389.650      18.309    -265.604
  O     1387.633      17.505    -266.969
  H     1386.773      17.214    -259.460
  H     1390.060      17.484    -265.890
  H     1379.819      20.674    -262.400
  H     1384.405      16.248    -263.464
  H     1384.875      18.551    -260.405
  H     1384.828      15.776    -260.976
  H     1380.557      22.110    -260.730
  H     1386.375      16.027    -262.865
  H     1382.106      21.885    -259.992
  H     1387.980      17.895    -261.013
  H     1388.531      19.032    -263.218
  H     1389.222      17.397    -263.046
  P     1387.388      13.829    -261.832
  C     1388.683      13.140    -259.673
  O     1387.536      12.961    -260.476
  O     1388.734      13.460    -262.667
  O     1386.143      13.618    -262.623
  H     1388.528      12.756    -263.314
  H     1388.499      12.700    -258.692
  H     1388.886      14.211    -259.528
  H     1389.542      12.666    -260.122
  H     1386.623      21.309    -266.557
  H     1385.968      19.724    -266.890
  H     1387.469      20.222    -267.633

 3  4  5  6  7  8  9  10  11  12  23  26  30  31 0
 6-311+G(2d,p)
 ****
 33  35  36  37  38 0
 6-311+G(2d,p)
 ****
 1  2  13  14  15  16  17  18  19  20  21  22  24  25 0
 3-21G
 ****
 27  28  29  32  34  39  40  41  42  43  44  45  46  47  48  49 0
 3-21G
 ****


