%nproc=1
%NoSave
%Mem=1900MB
#P OB98/GEN NMR

erre ene a

0 1
  C      138.958     -13.143    -193.373
  O      139.892     -12.176    -192.941
  H      139.488     -14.080    -193.565
  H      138.471     -12.822    -194.297
  H      138.207     -13.322    -192.598
  P      139.380     -10.686    -192.654
  C      139.607      -9.363    -194.859
  O      138.751     -10.140    -194.026
  C      138.850      -8.903    -196.110
  O      138.441     -10.088    -196.837
  C      137.593      -8.088    -195.769
  O      137.544      -6.830    -196.439
  C      136.458      -9.070    -196.029
  O      135.221      -8.470    -196.355
  C      137.032      -9.984    -197.118
  N      136.417     -11.309    -197.163
  C      135.188     -11.419    -197.807
  O      134.593     -10.498    -198.361
  N      134.636     -12.675    -197.814
  C      135.171     -13.793    -197.249
  O      134.632     -14.892    -197.292
  C      136.460     -13.607    -196.564
  C      137.014     -12.392    -196.551
  O      140.372      -9.773    -192.015
  O      138.091     -10.892    -191.726
  H      134.540      -9.173    -196.355
  H      138.322     -10.698    -190.799
  H      133.751     -12.769    -198.288
  H      136.909     -14.472    -196.095
  H      137.966     -12.220    -196.056
  H      136.914      -9.529    -198.101
  H      136.298      -9.659    -195.117
  H      137.584      -7.809    -194.710
  H      139.536      -8.341    -196.752
  H      140.461      -9.988    -195.140
  H      139.969      -8.492    -194.303
  P      138.268      -5.502    -195.931
  C      136.122      -4.256    -195.087
  O      137.372      -4.854    -194.776
  O      138.758      -4.585    -197.000
  O      139.559      -6.064    -195.141
  H      140.269      -5.402    -195.263
  H      135.673      -3.881    -194.191
  H      135.478      -4.986    -195.530
  H      136.273      -3.450    -195.774

 6  7  8  9  10  11  12  13  14  15  16  26  31  32  33  34  35 0
 6-311+G(2d,p)
 ****
 36  37 0
 6-311+G(2d,p)
 ****
 1  2  3  4  5  17  18  19  20  21  22  23  24  25 0
 3-21G
 ****
 27  28  29  30  38  39  40  41  42  43  44  45 0
 3-21G
 ****


