%nproc=1
%NoSave
%Mem=1900MB
#P OB98/GEN NMR

erre ene a

0 1
  C     1063.101    -753.388      27.497
  O     1063.899    -754.395      26.889
  H     1063.725    -752.479      27.595
  H     1062.799    -753.703      28.499
  H     1062.229    -753.146      26.892
  P     1063.177    -755.768      26.489
  C     1065.487    -756.641      25.709
  O     1064.333    -756.895      26.486
  C     1066.704    -757.280      26.362
  O     1067.103    -756.503      27.531
  C     1066.469    -758.689      26.867
  O     1066.469    -759.620      25.806
  C     1067.624    -758.854      27.857
  O     1068.823    -759.187      27.172
  C     1067.689    -757.424      28.470
  N     1067.029    -757.349      29.792
  C     1067.823    -757.551      30.893
  O     1069.028    -757.836      30.815
  N     1067.183    -757.472      32.112
  C     1065.858    -757.286      32.302
  O     1065.310    -757.304      33.415
  C     1065.049    -757.100      31.098
  C     1065.671    -757.138      29.898
  O     1062.331    -755.745      25.264
  O     1062.315    -756.156      27.788
  H     1069.559    -758.983      27.775
  H     1061.379    -755.985      27.614
  H     1067.746    -757.618      32.936
  H     1063.982    -756.971      31.208
  H     1065.092    -757.016      28.993
  H     1068.749    -757.136      28.603
  H     1067.431    -759.648      28.591
  H     1065.516    -758.721      27.430
  H     1067.554    -757.248      25.655
  H     1065.639    -755.547      25.664
  H     1065.341    -757.037      24.706
  P     1065.594    -760.965      25.910
  C     1067.133    -762.173      24.246
  O     1066.556    -762.216      25.528
  O     1064.276    -760.938      25.207
  O     1065.383    -761.144      27.505
  H     1064.423    -761.121      27.694
  H     1067.743    -763.040      24.100
  H     1067.735    -761.293      24.155
  H     1066.359    -762.153      23.507

 6  7  8  9  10  11  12  13  14  15  16  26  31  32  33  34  35 0
 6-311+G(2d,p)
 ****
 36  37 0
 6-311+G(2d,p)
 ****
 1  2  3  4  5  17  18  19  20  21  22  23  24  25 0
 3-21G
 ****
 27  28  29  30  38  39  40  41  42  43  44  45 0
 3-21G
 ****


