%nproc=1
%NoSave
%Mem=1900MB
#P OB98/GEN NMR

erre ene a

0 1
  C       15.237     126.994     104.354
  O       16.308     127.804     104.809
  P       17.582     127.081     105.457
  C       17.543     128.466     107.653
  O       18.265     128.110     106.484
  C       18.472     129.095     108.694
  O       19.496     128.138     109.077
  C       19.191     130.354     108.196
  O       19.366     131.266     109.289
  C       20.564     129.844     107.806
  O       21.535     130.891     107.824
  C       20.777     128.761     108.863
  N       25.268     126.734     109.992
  C       24.440     127.518     110.770
  N       24.917     127.880     111.982
  N       23.250     127.907     110.397
  C       22.908     127.476     109.158
  C       23.637     126.683     108.300
  C       24.958     126.270     108.721
  O       25.751     125.600     108.068
  N       22.943     126.425     107.145
  C       21.815     127.095     107.281
  N       21.763     127.776     108.470
  O       18.618     127.023     104.238
  O       17.317     125.716     105.997
  H       22.408     130.470     107.711
  H       18.669     126.114     103.888
  H       26.183     126.470     110.319
  H       21.022     127.139     106.546
  H       21.097     129.192     109.821
  H       20.534     129.421     106.796
  H       25.851     127.669     112.299
  H       18.686     130.868     107.370
  H       24.349     128.489     112.553
  H       17.888     129.317     109.596
  H       17.088     127.570     108.077
  H       16.743     129.165     107.391
  P       18.899     132.780     109.023
  C       21.271     133.784     109.401
  O       19.926     133.702     109.831
  O       17.540     132.896     109.862
  O       18.709     133.117     107.583
  H       16.967     133.589     109.482
  H       21.487     134.811     109.100
  H       21.478     133.115     108.559
  H       21.928     133.511     110.233
  H       14.466     127.616     103.950
  H       14.846     126.427     105.173
  H       15.591     126.327     103.596

 3  4  5  6  7  8  9  10  11  12  23  26  30  31 0
 6-311+G(2d,p)
 ****
 33  35  36  37  38 0
 6-311+G(2d,p)
 ****
 1  2  13  14  15  16  17  18  19  20  21  22  24  25 0
 3-21G
 ****
 27  28  29  32  34  39  40  41  42  43  44  45  46  47  48  49 0
 3-21G
 ****


