%nproc=1
%NoSave
%Mem=1900MB
#P OB98/GEN NMR

erre ene a

0 1
  C     -163.836     151.374      59.037
  O     -164.721     150.392      58.536
  H     -164.304     151.866      59.892
  H     -163.631     152.121      58.265
  H     -162.900     150.911      59.363
  P     -164.196     149.523      57.295
  C     -165.505     150.750      55.403
  O     -164.251     150.498      56.022
  C     -165.302     151.121      53.930
  O     -164.535     152.359      53.863
  C     -164.519     150.065      53.131
  O     -164.962     150.107      51.763
  C     -163.102     150.602      53.214
  O     -162.285     149.996      52.240
  C     -163.379     152.091      53.042
  N     -159.072     154.298      51.438
  C     -160.021     153.593      50.786
  N     -161.149     153.045      51.285
  C     -161.260     153.309      52.598
  C     -160.374     154.008      53.398
  C     -159.226     154.514      52.766
  N     -158.243     155.212      53.429
  N     -160.824     154.043      54.706
  C     -161.964     153.382      54.690
  N     -162.267     152.922      53.439
  O     -165.393     148.493      57.037
  O     -162.892     148.829      57.497
  H     -161.424     150.455      52.167
  H     -165.231     147.665      57.527
  H     -159.855     153.451      49.722
  H     -162.598     153.198      55.546
  H     -163.633     152.351      52.007
  H     -162.658     150.393      54.191
  H     -164.634     149.051      53.522
  H     -166.277     151.327      53.473
  H     -165.995     151.573      55.932
  H     -166.129     149.854      55.469
  H     -157.438     155.516      52.907
  H     -158.325     155.352      54.426
  P     -165.841     148.893      51.190
  C     -163.776     147.600      50.254
  O     -164.947     147.567      51.055
  O     -166.043     149.321      49.657
  O     -167.169     148.696      51.846
  H     -166.976     149.198      49.401
  H     -163.303     146.640      50.274
  H     -163.102     148.337      50.637
  H     -164.040     147.847      49.247

 6  7  8  9  10  11  12  13  14  15  25  28  32  33  34  35 0
 6-311+G(2d,p)
 ****
 36  37  40 0
 6-311+G(2d,p)
 ****
 1  2  3  4  5  16  17  18  19  20  21  22  23  24 0
 3-21G
 ****
 26  27  29  30  31  38  39 41  42  43  44  45  46  47  48 0
 3-21G
 ****


