%nproc=1
%NoSave
%Mem=1900MB
#P OB98/GEN NMR

erre ene a

0 1
  C        4.374    -342.284     842.705
  O        3.777    -341.038     843.013
  P        2.420    -340.957     843.872
  C        3.534    -339.275     845.464
  O        2.457    -339.513     844.569
  C        4.310    -338.031     845.030
  O        3.465    -336.875     845.224
  C        5.592    -337.738     845.807
  O        6.739    -338.442     845.350
  C        5.764    -336.253     845.516
  O        6.324    -336.078     844.197
  C        4.322    -335.747     845.549
  N        5.457    -332.276     849.133
  C        6.005    -332.538     847.926
  N        5.649    -333.493     847.035
  C        4.600    -334.195     847.491
  C        3.933    -334.041     848.694
  C        4.404    -333.024     849.544
  N        3.836    -332.750     850.768
  N        2.907    -334.963     848.804
  C        2.947    -335.645     847.687
  N        3.949    -335.214     846.846
  O        2.200    -342.116     844.782
  O        1.267    -340.802     842.774
  H        7.243    -336.408     844.236
  H        0.396    -341.017     843.175
  H        6.833    -331.901     847.631
  H        2.284    -336.461     847.433
  H        4.128    -334.970     844.803
  H        6.444    -335.758     846.220
  H        5.443    -337.880     846.887
  H        4.521    -338.122     843.957
  H        4.201    -340.146     845.433
  H        4.155    -331.921     851.250
  H        2.951    -333.194     850.993
  H        3.153    -339.169     846.482
  P        8.050    -338.401     846.288
  C        8.631    -340.467     844.787
  O        9.090    -339.422     845.621
  O        7.777    -338.616     847.740
  O        8.674    -336.967     845.950
  H        9.017    -336.860     845.050
  H        9.496    -340.943     844.310
  H        7.972    -340.083     844.005
  H        8.099    -341.218     845.386
  H        5.262    -342.122     842.130
  H        3.687    -342.879     842.140
  H        4.624    -342.794     843.612

 3  4  5  6  7  8  9  10  11  12  22  25  29  30  31  32 0
 6-311+G(2d,p)
 ****
 33  36  37 0
 6-311+G(2d,p)
 ****
 1  2  13  14  15  16  17  18  19  20  21  23  24  26 0
 3-21G
 ****
 27  28  34  35  38  39  40  41  42  43  44  45  46  47  48 0
 3-21G
 ****


