%nproc=1
%NoSave
%Mem=1900MB
#P OB98/GEN NMR

erre ene a

0 1
  C       50.919      36.215      37.671
  O       50.096      36.707      36.627
  P       48.993      35.767      35.944
  C       47.240      36.053      37.802
  O       48.116      35.149      37.139
  C       45.851      35.438      37.959
  O       45.940      34.306      38.856
  C       44.823      36.402      38.539
  O       43.554      36.147      37.929
  C       44.732      36.017      40.005
  O       43.454      36.373      40.559
  C       45.015      34.514      39.940
  N       44.108      32.458      44.556
  C       43.276      32.821      43.555
  N       43.583      33.385      42.367
  C       44.913      33.515      42.237
  C       45.886      33.186      43.168
  C       45.438      32.635      44.381
  N       46.290      32.254      45.395
  N       47.145      33.494      42.690
  C       46.934      33.979      41.486
  N       45.603      34.002      41.163
  O       49.527      34.761      34.984
  O       47.980      36.781      35.240
  H       42.770      35.967      39.987
  H       47.677      36.420      34.385
  H       42.221      32.638      43.735
  H       47.702      34.335      40.817
  H       44.105      33.940      39.726
  H       45.504      36.549      40.573
  H       45.099      37.453      38.402
  H       45.523      35.060      36.983
  H       47.164      36.963      37.201
  H       45.889      31.758      46.175
  H       47.281      32.224      45.198
  H       47.659      36.316      38.779
  P       42.555      37.408      37.833
  C       43.697      38.013      35.574
  O       43.294      38.438      36.856
  O       42.157      37.911      39.181
  O       41.358      36.789      36.967
  H       41.666      36.040      36.411
  H       44.214      38.839      35.077
  H       42.825      37.740      34.975
  H       44.380      37.162      35.649
  H       51.586      36.987      37.993
  H       51.485      35.380      37.315
  H       50.307      35.907      38.493

 3  4  5  6  7  8  9  10  11  12  22  25  29  30  31  32 0
 6-311+G(2d,p)
 ****
 33  36  37 0
 6-311+G(2d,p)
 ****
 1  2  13  14  15  16  17  18  19  20  21  23  24  26 0
 3-21G
 ****
 27  28  34  35  38  39  40  41  42  43  44  45  46  47  48 0
 3-21G
 ****


