%nproc=1
%NoSave
%Mem=1900MB
#P OB98/GEN NMR

erre ene a

0 1
  C      -61.190     163.984     -88.461
  O      -60.374     164.270     -87.336
  P      -60.183     165.808     -86.923
  C      -58.545     165.894     -88.924
  O      -59.583     166.555     -88.211
  C      -57.429     166.866     -89.285
  O      -57.916     167.785     -90.302
  C      -56.920     167.710     -88.105
  O      -55.487     167.770     -88.151
  C      -57.448     169.101     -88.411
  O      -56.655     170.118     -87.808
  C      -57.409     169.085     -89.939
  N      -57.142     173.664     -92.053
  C      -56.131     172.778     -91.736
  N      -54.867     173.200     -91.963
  N      -56.336     171.589     -91.237
  C      -57.651     171.288     -91.091
  C      -58.742     172.076     -91.376
  C      -58.496     173.415     -91.871
  O      -59.344     174.277     -92.087
  N      -59.917     171.418     -91.110
  C      -59.539     170.237     -90.660
  N      -58.173     170.128     -90.584
  O      -58.949     165.754     -85.905
  O      -61.372     166.452     -86.298
  H      -55.729     169.944     -88.059
  H      -59.207     166.157     -85.054
  H      -56.927     174.574     -92.418
  H      -60.212     169.449     -90.350
  H      -56.373     169.159     -90.296
  H      -58.473     169.188     -88.034
  H      -54.639     174.089     -92.379
  H      -57.244     167.351     -87.124
  H      -54.113     172.555     -91.759
  H      -56.605     166.298     -89.739
  H      -58.959     165.462     -89.842
  H      -58.152     165.082     -88.302
  P      -54.722     167.298     -86.822
  C      -54.425     169.698     -85.851
  O      -55.024     168.424     -85.722
  O      -53.180     167.522     -87.182
  O      -55.016     165.891     -86.418
  H      -52.614     166.938     -86.642
  H      -53.923     169.822     -86.816
  H      -53.690     169.828     -85.054
  H      -55.198     170.465     -85.755
  H      -61.225     162.926     -88.616
  H      -60.781     164.458     -89.328
  H      -62.179     164.352     -88.287

 3  4  5  6  7  8  9  10  11  12  23  26  30  31  33  0
 6-311+G(2d,p)
 ****
 35  36  37  38 0
 6-311+G(2d,p)
 ****
 1  2  13  14  15  16  17  18  19  20  21  22  24  25  27  28  29 0
 3-21G
 ****
 32  34  39  40  41  42  43  44  45  46  47  48  49 0
 3-21G
 ****


