%nproc=1
%NoSave
%Mem=1900MB
#P OB98/GEN NMR

erre ene a

0 1
  C     -339.690    -217.381     122.505
  O     -339.543    -217.796     121.165
  H     -339.860    -218.264     123.127
  H     -340.557    -216.719     122.590
  H     -338.797    -216.864     122.865
  P     -338.844    -216.801     120.125
  C     -340.717    -217.098     118.371
  O     -339.987    -216.182     119.179
  C     -342.094    -216.548     117.997
  O     -342.903    -216.414     119.186
  C     -342.018    -215.161     117.353
  O     -341.818    -215.171     115.951
  C     -343.382    -214.575     117.709
  O     -344.369    -214.910     116.718
  C     -343.716    -215.240     119.048
  N     -345.845    -212.367     122.703
  C     -346.449    -212.975     121.619
  N     -347.773    -212.758     121.478
  N     -345.799    -213.713     120.754
  C     -344.466    -213.756     120.970
  C     -343.752    -213.177     121.997
  C     -344.489    -212.427     122.992
  O     -344.003    -211.883     123.978
  N     -342.403    -213.406     121.867
  C     -342.297    -214.043     120.720
  N     -343.523    -214.348     120.180
  O     -338.072    -217.790     119.124
  O     -337.896    -215.805     120.720
  H     -344.481    -215.879     116.720
  H     -337.266    -217.354     118.793
  H     -346.400    -211.836     123.350
  H     -341.365    -214.348     120.259
  H     -344.762    -215.572     119.077
  H     -343.337    -213.482     117.751
  H     -348.305    -212.132     122.063
  H     -341.248    -214.551     117.837
  H     -348.216    -213.027     120.597
  H     -342.604    -217.268     117.343
  H     -340.826    -218.010     118.959
  H     -340.149    -217.352     117.474
  P     -341.538    -213.820     115.150
  C     -343.576    -213.735     113.495
  O     -342.935    -213.233     114.646
  O     -340.845    -214.334     113.802
  O     -340.695    -212.813     115.863
  H     -339.876    -214.246     113.858
  H     -344.492    -213.205     113.337
  H     -343.784    -214.776     113.628
  H     -342.938    -213.605     112.646

 6  7  8  9  10  11  12  13  14  15  26  29  33  34 0
 6-311+G(2d,p)
 ****
 36  38  39  40  41 0
 6-311+G(2d,p)
 ****
 1  2  3  4  5  16  17  18  19  20  21  22  23  24  25 0
 3-21G
 ****
 27  28  30  31  32  35  37  42  43  44  45  46  47 0
 3-21G
 ****
 48  49 0
 3-21G
 ****


