%nproc=1
%NoSave
%Mem=1900MB
#P OB98/GEN NMR

erre ene a

0 1
  C       72.009     839.172     254.823
  O       73.343     839.591     255.036
  P       74.457     838.564     255.550
  C       74.818     839.958     257.691
  O       74.461     838.680     257.157
  C       76.074     839.835     258.545
  O       76.048     838.646     259.367
  C       77.362     839.715     257.737
  O       77.750     840.835     256.967
  C       78.325     839.240     258.815
  O       78.817     840.323     259.599
  C       77.428     838.311     259.653
  N       77.708     836.888     259.423
  C       78.247     836.188     260.496
  O       78.480     836.703     261.591
  N       78.541     834.877     260.264
  C       78.402     834.224     259.070
  O       78.748     833.061     258.909
  C       77.851     835.021     257.957
  C       77.537     836.298     258.181
  O       75.792     838.691     254.909
  O       73.753     837.125     255.334
  H       79.288     840.937     258.997
  H       72.922     837.009     255.820
  H       78.944     834.343     261.019
  H       77.722     834.526     257.000
  H       77.133     836.907     257.383
  H       77.567     838.508     260.726
  H       79.207     838.746     258.372
  H       77.242     838.885     257.030
  H       76.104     840.700     259.234
  H       73.995     840.324     258.318
  H       74.956     840.670     256.877
  P       78.676     840.712     255.657
  C       80.963     841.509     256.585
  O       80.180     840.419     256.128
  O       78.463     841.740     254.604
  O       78.235     839.273     255.086
  H       78.312     839.277     254.110
  H       81.962     841.140     256.810
  H       80.528     841.939     257.482
  H       81.052     842.277     255.805
  H       71.425     840.001     254.482
  H       71.601     838.801     255.740
  H       71.992     838.397     254.085

 3  4  5  6  7  8  9  10  11  12  13  23  28  29  30  31  32 0
 6-311+G(2d,p)
 ****
 33  34 0
 6-311+G(2d,p)
 ****
 1  2  14  15  16  17  18  19  20  21  22  24  25  26  27 0
 3-21G
 ****
 35  36  37  38  39  40  41  42  43  44  45 0
 3-21G
 ****


