%nproc=1
%NoSave
%Mem=1900MB
#P OB98/GEN NMR

erre ene a

0 1
  C       45.564     127.337    -717.076
  O       45.578     126.975    -718.439
  H       46.526     127.071    -716.632
  H       44.779     126.787    -716.551
  H       45.407     128.409    -716.955
  P       44.362     127.431    -719.379
  C       43.239     125.135    -719.032
  O       43.092     126.546    -718.952
  C       41.909     124.489    -719.427
  O       42.080     123.074    -719.634
  C       40.807     124.631    -718.377
  O       40.268     125.944    -718.374
  C       39.847     123.537    -718.834
  O       39.029     123.994    -719.920
  C       40.828     122.431    -719.290
  N       41.030     121.389    -718.286
  C       40.548     120.118    -718.598
  O       39.939     119.873    -719.638
  N       40.762     119.149    -717.663
  C       41.337     119.328    -716.432
  O       41.464     118.435    -715.605
  C       41.804     120.694    -716.137
  C       41.640     121.650    -717.055
  O       44.639     127.469    -720.849
  O       43.982     128.888    -718.817
  H       38.475     124.719    -719.578
  H       44.369     129.569    -719.393
  H       40.413     118.223    -717.860
  H       42.262     120.881    -715.176
  H       41.960     122.655    -716.868
  H       40.459     121.949    -720.211
  H       39.159     123.227    -718.041
  H       41.199     124.369    -717.386
  H       41.589     124.940    -720.381
  H       43.540     124.753    -718.050
  H       44.017     124.896    -719.761
  P       39.869     126.665    -716.999
  C       37.424     126.939    -717.738
  O       38.297     126.403    -716.754
  O       40.296     128.095    -716.885
  O       40.579     125.761    -715.873
  H       41.356     126.234    -715.522
  H       36.411     126.709    -717.480
  H       37.655     126.511    -718.691
  H       37.548     128.001    -717.784

 6  7  8  9  10  11  12  13  14  15  16  26  31  32  33  34  35 0
 6-311+G(2d,p)
 ****
 36  37 0
 6-311+G(2d,p)
 ****
 1  2  3  4  5  17  18  19  20  21  22  23  24  25 0
 3-21G
 ****
 27  28  29  30  38  39  40  41  42  43  44  45 0
 3-21G
 ****


