%nproc=1
%NoSave
%Mem=1900MB
#P OB98/GEN NMR

erre ene a

0 1
  C      297.107     145.328     -41.601
  O      298.252     145.022     -42.407
  P      299.714     144.789     -41.792
  C      300.885     145.694     -43.907
  O      300.769     144.613     -42.985
  C      301.431     145.227     -45.259
  O      300.408     144.541     -46.007
  C      301.919     146.345     -46.172
  O      303.180     146.834     -45.752
  C      301.925     145.638     -47.524
  O      303.122     144.864     -47.697
  C      300.689     144.721     -47.410
  N      299.535     145.247     -48.124
  C      299.448     144.938     -49.484
  O      300.347     144.304     -50.039
  N      298.356     145.382     -50.189
  C      297.471     146.127     -49.606
  N      296.406     146.529     -50.353
  C      297.571     146.551     -48.198
  C      298.618     146.077     -47.524
  O      299.776     143.709     -40.761
  O      300.120     146.198     -41.145
  H      303.251     144.364     -46.868
  H      300.702     146.040     -40.377
  H      296.828     147.196     -47.758
  H      298.763     146.331     -46.481
  H      300.919     143.724     -47.802
  H      301.871     146.337     -48.364
  H      301.182     147.157     -46.190
  H      302.240     144.511     -45.065
  H      296.362     146.215     -51.315
  H      301.569     146.436     -43.477
  H      295.661     147.108     -49.996
  H      299.901     146.155     -44.032
  P      303.450     148.411     -45.719
  C      305.440     148.452     -47.340
  O      305.009     148.642     -46.005
  O      302.907     149.135     -44.532
  O      302.767     148.940     -47.071
  H      302.436     149.847     -46.924
  H      306.371     149.006     -47.488
  H      304.692     148.813     -48.051
  H      305.626     147.388     -47.512
  H      296.248     145.439     -42.229
  H      297.279     146.240     -41.068
  H      296.939     144.534     -40.904

 3  4  5  6  7  8  9  10  11  12  13  23  27  28  29  30  32 0
 6-311+G(2d,p)
 ****
 34  35 0
 6-311+G(2d,p)
 ****
 1  2  14  15  16  17  18  19  20  21  22  24  25  26 0
 3-21G
 ****
 31  33  36  37  38  39  40  41  42  43  44  45  46 0
 3-21G
 ****


