%nproc=1
%NoSave
%Mem=1900MB
#P OB98/GEN NMR

erre ene a

0 1
  C     -322.572     310.894     120.523
  O     -321.810     311.989     120.012
  P     -320.321     311.727     119.489
  C     -320.426     313.581     117.697
  O     -319.749     313.081     118.841
  C     -319.956     315.005     117.352
  O     -320.306     315.909     118.437
  C     -318.440     315.097     117.131
  O     -318.093     315.748     115.908
  C     -317.933     315.757     118.402
  O     -316.687     316.413     118.226
  C     -319.120     316.629     118.827
  N     -319.098     316.922     120.263
  C     -319.044     318.263     120.626
  O     -318.944     319.178     119.810
  N     -319.051     318.524     121.970
  C     -319.023     317.592     122.962
  O     -318.980     317.875     124.156
  C     -319.014     316.185     122.521
  C     -319.050     315.925     121.212
  O     -320.127     310.502     118.659
  O     -319.474     311.622     120.852
  H     -316.452     316.864     119.067
  H     -318.803     310.925     120.735
  H     -319.032     319.492     122.248
  H     -318.968     315.420     123.281
  H     -319.030     314.900     120.856
  H     -319.108     317.588     118.300
  H     -317.780     314.974     119.158
  H     -317.988     314.102     117.033
  H     -320.495     315.317     116.455
  H     -321.500     313.601     117.888
  H     -320.277     312.892     116.857
  P     -317.951     315.013     114.497
  C     -319.755     316.308     113.156
  O     -318.378     316.044     113.347
  O     -318.585     313.666     114.398
  O     -316.365     314.891     114.307
  H     -316.154     314.023     113.921
  H     -319.899     316.706     112.150
  H     -320.087     317.057     113.884
  H     -320.355     315.401     113.266
  H     -323.537     311.242     120.827
  H     -322.065     310.469     121.364
  H     -322.684     310.151     119.761

 3  4  5  6  7  8  9  10  11  12  13  23  28  29  30  31  32 0
 6-311+G(2d,p)
 ****
 33  34 0
 6-311+G(2d,p)
 ****
 1  2  14  15  16  17  18  19  20  21  22  24  25  26  27 0
 3-21G
 ****
 35  36  37  38  39  40  41  42  43  44  45 0
 3-21G
 ****


