%nproc=1
%NoSave
%Mem=1900MB
#P OB98/GEN NMR

erre ene a

0 1
  C       95.150      -5.630     -27.773
  O       96.481      -6.046     -28.007
  H       95.148      -4.905     -26.955
  H       94.537      -6.488     -27.485
  H       94.735      -5.156     -28.667
  P       96.729      -6.979     -29.291
  C       95.690      -7.019     -31.701
  O       95.644      -6.518     -30.378
  C       94.430      -6.617     -32.472
  O       93.269      -7.096     -31.747
  C       94.277      -5.106     -32.655
  O       93.680      -4.864     -33.930
  C       93.297      -4.720     -31.560
  O       92.618      -3.502     -31.853
  C       92.403      -5.969     -31.503
  N       91.702      -6.094     -30.228
  C       90.437      -5.506     -30.146
  O       89.968      -4.905     -31.114
  N       89.748      -5.572     -28.962
  C       90.302      -6.121     -27.927
  N       89.578      -6.133     -26.775
  C       91.652      -6.715     -27.953
  C       92.284      -6.676     -29.126
  O       96.179      -8.392     -28.779
  O       98.142      -7.004     -29.771
  H       92.179      -3.591     -32.728
  H       95.333      -8.330     -28.307
  H       92.076      -7.152     -27.061
  H       93.277      -7.096     -29.239
  H       91.655      -5.944     -32.306
  H       93.826      -4.589     -30.610
  H       95.226      -4.573     -32.583
  H       94.435      -7.133     -33.439
  H       88.666      -5.694     -26.794
  H       95.777      -8.109     -31.693
  H       89.930      -6.482     -25.896
  H       96.580      -6.609     -32.188
  P       94.561      -5.026     -35.257
  C       95.569      -6.942     -36.671
  O       94.648      -6.577     -35.650
  O       95.859      -4.293     -35.266
  O       93.588      -4.441     -36.397
  H       94.133      -3.911     -37.010
  H       95.524      -7.999     -36.831
  H       96.559      -6.669     -36.372
  H       95.317      -6.433     -37.578

 6  7  8  9  10  11  12  13  14  15  16  26  30  31  32  33  35 0
 6-311+G(2d,p)
 ****
 37  38 0
 6-311+G(2d,p)
 ****
 1  2  3  4  5  17  18  19  20  21  22  23  24  25 0
 3-21G
 ****
 27  28  29  34  36  39  40  41  42  43  44  45  46 0
 3-21G
 ****


