%nproc=1
%NoSave
%Mem=1900MB
#P OB98/GEN NMR

erre ene a

0 1
  C      -25.524    -109.230     -20.972
  O      -26.707    -109.254     -21.744
  H      -24.712    -108.837     -21.588
  H      -25.263    -110.241     -20.653
  H      -25.643    -108.584     -20.098
  P      -28.095    -109.597     -21.022
  C      -29.340    -111.815     -20.597
  O      -28.079    -111.169     -20.708
  C      -29.189    -113.123     -19.828
  O      -28.960    -112.855     -18.429
  C      -30.419    -114.021     -19.882
  O      -30.516    -114.673     -21.134
  C      -30.150    -114.940     -18.700
  O      -29.219    -115.972     -19.056
  C      -29.524    -113.957     -17.683
  N      -30.477    -113.478     -16.682
  C      -30.431    -114.097     -15.438
  O      -29.668    -115.026     -15.177
  N      -31.310    -113.622     -14.501
  C      -32.265    -112.670     -14.712
  O      -33.066    -112.316     -13.852
  C      -32.290    -112.075     -16.055
  C      -31.409    -112.499     -16.964
  O      -29.325    -109.108     -21.711
  O      -27.935    -108.941     -19.570
  H      -28.416    -115.522     -19.383
  H      -28.407    -108.088     -19.540
  H      -31.300    -114.066     -13.597
  H      -33.037    -111.321     -16.260
  H      -31.416    -112.076     -17.962
  H      -28.690    -114.437     -17.156
  H      -31.051    -115.439     -18.341
  H      -31.324    -113.438     -19.674
  H      -28.307    -113.649     -20.218
  H      -29.717    -112.024     -21.605
  H      -30.038    -111.144     -20.088
  P      -31.941    -115.061     -21.746
  C      -33.995    -116.397     -21.001
  O      -32.623    -116.121     -20.751
  O      -31.927    -115.475     -23.180
  O      -32.825    -113.745     -21.533
  H      -32.950    -113.288     -22.388
  H      -34.351    -117.110     -20.287
  H      -34.105    -116.795     -21.988
  H      -34.562    -115.494     -20.915

 6  7  8  9  10  11  12  13  14  15  16  26  31  32  33  34  35 0
 6-311+G(2d,p)
 ****
 36  37 0
 6-311+G(2d,p)
 ****
 1  2  3  4  5  17  18  19  20  21  22  23  24  25 0
 3-21G
 ****
 27  28  29  30  38  39  40  41  42  43  44  45 0
 3-21G
 ****


