%nproc=1
%NoSave
%Mem=1900MB
#P OB98/GEN NMR

erre ene a

0 1
  C     -725.077     862.507    -895.830
  O     -723.780     863.035    -895.700
  P     -722.710     862.367    -894.700
  C     -721.448     860.963    -896.460
  O     -721.365     862.065    -895.580
  C     -720.355     861.091    -897.510
  O     -720.580     862.222    -898.400
  C     -718.951     861.349    -896.940
  O     -718.374     860.327    -896.160
  C     -718.199     861.815    -898.180
  O     -717.763     860.680    -898.960
  C     -719.293     862.611    -898.950
  N     -719.057     864.052    -898.830
  C     -717.867     864.503    -899.370
  O     -717.010     863.787    -899.870
  N     -717.642     865.876    -899.240
  C     -718.472     866.748    -898.590
  O     -718.173     867.947    -898.490
  C     -719.712     866.193    -898.070
  C     -719.973     864.915    -898.200
  O     -723.227     861.192    -893.950
  O     -722.252     863.610    -893.760
  H     -718.537     860.215    -899.280
  H     -721.847     864.343    -894.260
  H     -716.775     866.222    -899.570
  H     -720.398     866.894    -897.590
  H     -720.884     864.462    -897.820
  H     -719.304     862.333    -900.000
  H     -717.297     862.361    -897.940
  H     -719.027     862.220    -896.280
  H     -720.352     860.172    -898.140
  H     -722.409     860.942    -896.940
  H     -721.337     860.035    -895.890
  P     -717.142     860.577    -895.150
  C     -718.499     859.669    -893.110
  O     -717.300     859.583    -893.930
  O     -716.764     861.990    -894.870
  O     -715.927     859.865    -895.970
  H     -715.087     860.358    -895.790
  H     -718.392     858.981    -892.280
  H     -719.367     859.446    -893.710
  H     -718.574     860.675    -892.700
  H     -725.630     863.089    -896.538
  H     -725.571     862.536    -894.881
  H     -725.017     861.494    -896.170

 3  4  5  6  7  8  9  10  11  12  13  23  28  29  30  31  32 0
 6-311+G(2d,p)
 ****
 33  34 0
 6-311+G(2d,p)
 ****
 1  2  14  15  16  17  18  19  20  21  22  24  25  26  27 0
 3-21G
 ****
 35  36  37  38  39  40  41  42  43  44  45 0
 3-21G
 ****


