%nproc=1
%NoSave
%Mem=1900MB
#P OB98/GEN NMR

erre ene a

0 1
  C     -390.681    -319.467     452.404
  O     -391.324    -320.203     451.386
  H     -390.934    -318.411     452.282
  H     -389.597    -319.576     452.327
  H     -391.023    -319.798     453.387
  P     -391.067    -321.784     451.295
  C     -390.188    -322.448     448.961
  O     -391.334    -322.211     449.773
  C     -390.595    -322.552     447.485
  O     -391.482    -323.691     447.352
  C     -391.335    -321.299     446.992
  O     -390.767    -320.748     445.810
  C     -392.791    -321.753     446.944
  O     -393.590    -321.045     446.022
  C     -392.676    -323.258     446.676
  N     -393.835    -324.026     447.133
  C     -394.957    -324.041     446.309
  O     -395.048    -323.472     445.225
  N     -396.023    -324.766     446.775
  C     -396.079    -325.445     447.959
  O     -397.064    -326.079     448.322
  C     -394.873    -325.368     448.797
  C     -393.826    -324.672     448.353
  O     -391.781    -322.611     452.312
  O     -389.477    -321.926     451.434
  H     -394.445    -321.528     445.950
  H     -389.259    -322.258     452.327
  H     -396.837    -324.798     446.185
  H     -394.887    -325.884     449.746
  H     -392.918    -324.595     448.946
  H     -392.555    -323.449     445.609
  H     -393.232    -321.601     447.938
  H     -391.245    -320.482     447.719
  H     -389.700    -322.757     446.888
  H     -389.729    -323.384     449.296
  H     -389.470    -321.632     449.092
  P     -390.004    -319.350     445.722
  C     -389.984    -318.879     443.134
  O     -389.271    -319.258     444.301
  O     -389.202    -318.967     446.918
  O     -391.198    -318.275     445.573
  H     -390.888    -317.458     446.012
  H     -389.320    -318.878     442.295
  H     -390.391    -317.899     443.268
  H     -390.778    -319.575     442.960

 6  7  8  9  10  11  12  13  14  15  16  26  31  32  33  34  35 0
 6-311+G(2d,p)
 ****
 36  37 0
 6-311+G(2d,p)
 ****
 1  2  3  4  5  17  18  19  20  21  22  23  24  25 0
 3-21G
 ****
 27  28  29  30  38  39  40  41  42  43  44  45 0
 3-21G
 ****


