%nproc=1
%NoSave
%Mem=1900MB
#P OB98/GEN NMR

erre ene a

0 1
  C       71.387       6.190      69.473
  O       71.038       6.553      68.153
  H       72.349       6.644      69.720
  H       71.483       5.103      69.542
  H       70.636       6.544      70.186
  P       69.524       6.273      67.700
  C       69.859       4.051      66.402
  O       69.372       4.680      67.578
  C       68.698       3.556      65.547
  O       69.179       3.079      64.272
  C       67.908       2.407      66.164
  O       66.934       2.878      67.086
  C       67.249       1.821      64.927
  O       66.133       2.648      64.533
  C       68.372       1.930      63.887
  N       68.634      -2.962      62.579
  C       67.552      -2.105      62.589
  N       66.368      -2.629      62.203
  N       67.618      -0.850      62.949
  C       68.860      -0.470      63.333
  C       70.008      -1.228      63.374
  C       69.923      -2.608      62.958
  O       70.856      -3.407      62.921
  N       71.078      -0.498      63.820
  C       70.573       0.693      64.071
  N       69.230       0.761      63.795
  O       69.512       6.775      66.178
  O       68.481       6.967      68.508
  H       65.463       2.577      65.237
  H       69.084       7.651      66.139
  H       68.526      -3.922      62.303
  H       71.135       1.538      64.444
  H       67.988       2.122      62.879
  H       66.855       0.817      65.094
  H       66.242      -3.592      61.935
  H       68.568       1.659      66.619
  H       65.562      -2.017      62.199
  H       68.041       4.413      65.346
  H       70.491       3.203      66.686
  H       70.459       4.772      65.836
  P       66.880       2.209      68.542
  C       65.353       0.215      67.897
  O       66.641       0.635      68.325
  O       65.478       2.725      69.114
  O       68.005       2.569      69.450
  H       65.629       3.352      69.849
  H       65.341      -0.850      67.795
  H       65.126       0.666      66.954
  H       64.622       0.513      68.620

 6  7  8  9  10  11  12  13  14  15  26  29  33  34 0
 6-311+G(2d,p)
 ****
 36  38  39  40  41 0
 6-311+G(2d,p)
 ****
 1  2  3  4  5  16  17  18  19  20  21  22  23  24  25 0
 3-21G
 ****
 27  28  30  31  32  35  37  42  43  44  45  46  47 0
 3-21G
 ****
 48  49 0
 3-21G
 ****


