%nproc=1
%NoSave
%Mem=1900MB
#P OB98/GEN NMR

erre ene a

0 1
  C      492.960      -6.090     675.276
  O      491.717      -6.477     674.688
  P      491.068      -5.482     673.611
  C      489.840      -4.201     675.541
  O      490.710      -4.142     674.423
  C      489.534      -2.789     676.044
  O      490.755      -2.135     676.486
  C      488.941      -1.871     674.987
  O      487.582      -2.180     674.735
  C      489.177      -0.510     675.628
  O      488.167      -0.236     676.615
  C      490.548      -0.710     676.323
  N      491.648      -0.094     675.593
  C      492.057       1.149     676.063
  O      491.520       1.725     677.005
  N      493.098       1.726     675.385
  C      493.738       1.203     674.299
  O      494.671       1.768     673.739
  C      493.227      -0.093     673.817
  C      492.220      -0.670     674.477
  O      489.653      -6.183     673.354
  O      491.917      -5.304     672.393
  H      489.284      -6.597     674.152
  H      488.447       0.576     677.083
  H      493.420       2.625     675.714
  H      493.692      -0.522     672.941
  H      491.829      -1.630     674.139
  H      490.523      -0.290     677.331
  H      489.153       0.308     674.902
  H      489.521      -1.947     674.057
  H      488.855      -2.871     676.898
  H      490.306      -4.774     676.347
  H      488.920      -4.721     675.254
  P      487.271      -3.046     673.415
  C      488.097      -1.085     671.897
  O      488.182      -2.451     672.248
  O      485.792      -2.533     673.057
  O      487.376      -4.520     673.628
  H      485.699      -1.569     673.121
  H      488.999      -0.798     671.366
  H      487.992      -0.450     672.784
  H      487.232      -0.935     671.243
  H      493.275      -6.840     675.971
  H      492.838      -5.159     675.788
  H      493.699      -5.981     674.509

 3  4  5  6  7  8  9  10  11  12  13  24  28  29  30  31  32 0
 6-311+G(2d,p)
 ****
 33  34 0
 6-311+G(2d,p)
 ****
 1  2  14  15  16  17  18  19  20  21  22  23  25  26  27 0
 3-21G
 ****
 35  36  37  38  39  40  41  42  43  44  45 0
 3-21G
 ****


