%nproc=1
%NoSave
%Mem=1900MB
#P OB98/GEN NMR

erre ene a

0 1
  C      138.758     155.175     950.910
  O      139.748     156.129     950.569
  P      140.341     157.114     951.685
  C      138.378     158.788     951.531
  O      139.781     158.577     951.334
  C      137.981     160.143     950.977
  O      138.462     161.223     951.829
  C      138.565     160.464     949.593
  O      138.124     159.665     948.508
  C      138.300     161.947     949.507
  O      136.964     162.256     949.118
  C      138.552     162.397     950.969
  N      139.846     163.078     951.143
  C      139.814     164.462     951.043
  O      138.793     165.108     950.840
  N      141.038     165.102     951.168
  C      142.241     164.491     951.313
  O      143.298     165.105     951.372
  C      142.202     163.013     951.398
  C      141.036     162.375     951.316
  O      141.832     157.037     951.879
  O      139.495     156.744     953.002
  H      136.364     161.703     949.663
  H      138.522     156.859     952.919
  H      141.037     166.101     951.086
  H      143.146     162.507     951.535
  H      140.972     161.306     951.363
  H      137.760     163.102     951.304
  H      138.970     162.429     948.767
  H      139.651     160.322     949.651
  H      136.873     160.203     950.982
  H      138.172     158.759     952.595
  H      137.807     157.975     951.060
  P      139.124     158.980     947.478
  C      139.835     161.181     946.277
  O      139.212     159.904     946.159
  O      138.951     157.504     947.245
  O      140.554     159.253     948.169
  H      141.158     158.505     947.957
  H      139.751     161.706     945.318
  H      140.885     161.066     946.547
  H      139.329     161.770     947.042
  H      138.489     154.614     950.040
  H      137.894     155.678     951.291
  H      139.143     154.512     951.657

 3  4  5  6  7  8  9  10  11  12  13  23  28  29  30  31  32 0
 6-311+G(2d,p)
 ****
 33  34 0
 6-311+G(2d,p)
 ****
 1  2  14  15  16  17  18  19  20  21  22  24  25  26  27 0
 3-21G
 ****
 35  36  37  38  39  40  41  42  43  44  45 0
 3-21G
 ****


