%nproc=1
%NoSave
%Mem=1900MB
#P OB98/GEN NMR

erre ene a

0 1
  C       14.876     -33.590      71.997
  O       13.714     -33.852      72.758
  P       13.801     -34.341      74.284
  C       13.039     -36.754      73.827
  O       14.114     -35.915      74.220
  C       13.451     -38.227      73.830
  O       14.733     -38.373      73.157
  C       13.587     -38.850      75.226
  O       13.185     -40.218      75.096
  C       15.079     -38.756      75.483
  O       15.517     -39.644      76.502
  C       15.631     -39.033      74.078
  N       17.007     -38.573      73.931
  C       18.011     -39.448      74.354
  O       17.717     -40.515      74.896
  N       19.323     -39.073      74.206
  C       19.602     -37.883      73.771
  N       20.919     -37.568      73.642
  C       18.572     -36.883      73.434
  C       17.309     -37.295      73.521
  O       12.638     -33.965      75.137
  O       15.190     -33.733      74.795
  H       16.408     -39.356      76.800
  H       15.094     -32.766      74.987
  H       18.853     -35.886      73.130
  H       16.485     -36.634      73.293
  H       15.599     -40.107      73.855
  H       15.335     -37.736      75.796
  H       12.995     -38.343      75.991
  H       12.713     -38.785      73.241
  H       21.594     -38.289      73.871
  H       12.745     -36.473      72.811
  H       21.244     -36.703      73.235
  H       12.176     -36.590      74.481
  P       12.021     -40.835      76.010
  C       13.508     -41.419      78.011
  O       12.453     -40.605      77.534
  O       11.628     -42.237      75.672
  O       10.791     -39.823      75.821
  H        9.969     -40.249      76.133
  H       13.896     -40.992      78.940
  H       14.320     -41.476      77.279
  H       13.131     -42.426      78.212
  H       14.595     -33.278      71.013
  H       15.469     -34.479      71.934
  H       15.444     -32.815      72.468

 3  4  5  6  7  8  9  10  11  12  13  23  27  28  29  30  32 0
 6-311+G(2d,p)
 ****
 34  35 0
 6-311+G(2d,p)
 ****
 1  2  14  15  16  17  18  19  20  21  22  24  25  26 0
 3-21G
 ****
 31  33  36  37  38  39  40  41  42  43  44  45  46 0
 3-21G
 ****


