%nproc=1
%NoSave
%Mem=1900MB
#P OB98/GEN NMR

erre ene a

0 1
  C     -431.837    -997.487     194.454
  O     -431.334    -996.280     194.998
  H     -431.219    -997.775     193.598
  H     -432.868    -997.343     194.112
  H     -431.799    -998.284     195.201
  P     -432.105    -995.698     196.279
  C     -430.189    -996.188     197.984
  O     -430.965    -995.218     197.297
  C     -428.831    -995.610     198.383
  O     -427.987    -995.530     197.189
  C     -428.901    -994.190     198.972
  O     -427.799    -994.036     199.875
  C     -428.674    -993.333     197.728
  O     -428.373    -992.003     198.082
  C     -427.571    -994.159     197.056
  N     -424.120    -992.795     193.537
  C     -423.994    -993.126     194.846
  N     -424.951    -993.487     195.707
  C     -426.160    -993.518     195.108
  C     -426.445    -993.210     193.790
  C     -425.358    -992.831     192.980
  N     -425.485    -992.485     191.655
  N     -427.800    -993.350     193.537
  C     -428.322    -993.727     194.683
  N     -427.364    -993.825     195.663
  O     -432.705    -997.012     196.971
  O     -433.161    -994.683     195.990
  H     -427.558    -991.963     198.623
  H     -433.620    -997.149     196.685
  H     -422.981    -993.084     195.238
  H     -429.366    -993.929     194.862
  H     -426.610    -994.039     197.574
  H     -429.574    -993.301     197.106
  H     -429.838    -993.988     199.490
  H     -428.335    -996.301     199.070
  H     -430.051    -997.048     197.319
  H     -430.728    -996.517     198.881
  H     -424.659    -992.212     191.150
  H     -426.401    -992.491     191.237
  P     -427.725    -992.714     200.793
  C     -427.811    -994.002     203.073
  O     -427.102    -993.108     202.218
  O     -429.268    -992.478     201.158
  O     -427.148    -991.494     200.138
  H     -429.432    -991.519     201.323
  H     -427.253    -994.152     203.974
  H     -427.944    -994.940     202.576
  H     -428.767    -993.585     203.311

 6  7  8  9  10  11  12  13  14  15  25  28  32  33  34  35 0
 6-311+G(2d,p)
 ****
 36  37  40 0
 6-311+G(2d,p)
 ****
 1  2  3  4  5  16  17  18  19  20  21  22  23  24 0
 3-21G
 ****
 26  27  29  30  31  38  39 41  42  43  44  45  46  47  48 0
 3-21G
 ****


