%nproc=1
%NoSave
%Mem=1900MB
#P OB98/GEN NMR

erre ene a

0 1
  C      268.059    -789.296     370.068
  O      269.354    -788.782     369.870
  H      267.693    -788.966     371.043
  H      268.090    -790.393     370.062
  H      267.381    -788.942     369.294
  P      270.048    -789.079     368.448
  C      271.106    -791.263     369.365
  O      270.267    -790.669     368.381
  C      271.546    -792.662     368.932
  O      270.424    -793.583     369.099
  C      272.003    -792.750     367.456
  O      273.064    -793.709     367.383
  C      270.781    -793.337     366.766
  O      271.104    -793.964     365.521
  C      270.291    -794.295     367.850
  N      267.425    -797.635     365.398
  C      268.809    -797.509     365.468
  N      269.525    -798.411     364.761
  N      269.405    -796.581     366.150
  C      268.558    -795.762     366.822
  C      267.182    -795.778     366.846
  C      266.520    -796.800     366.055
  O      265.304    -796.955     365.946
  N      266.685    -794.780     367.626
  C      267.761    -794.146     368.084
  N      268.916    -794.711     367.626
  O      271.529    -788.499     368.657
  O      269.373    -788.474     367.268
  H      271.493    -793.290     364.933
  H      271.579    -787.576     368.341
  H      267.009    -798.360     364.847
  H      267.745    -793.285     368.742
  H      270.893    -795.209     367.909
  H      270.046    -792.544     366.577
  H      269.128    -799.179     364.249
  H      272.328    -791.798     367.033
  H      270.536    -798.358     364.837
  H      272.342    -793.000     369.611
  H      270.544    -791.347     370.311
  H      271.988    -790.632     369.529
  P      274.575    -793.159     367.319
  C      274.547    -792.829     364.732
  O      274.710    -792.232     366.020
  O      275.400    -794.472     366.917
  O      275.061    -792.568     368.598
  H      276.312    -794.400     367.251
  H      274.666    -792.082     363.975
  H      273.570    -793.258     364.659
  H      275.283    -793.594     364.598

 6  7  8  9  10  11  12  13  14  15  26  29  33  34 0
 6-311+G(2d,p)
 ****
 36  38  39  40  41 0
 6-311+G(2d,p)
 ****
 1  2  3  4  5  16  17  18  19  20  21  22  23  24  25 0
 3-21G
 ****
 27  28  30  31  32  35  37  42  43  44  45  46  47 0
 3-21G
 ****
 48  49 0
 3-21G
 ****


