%nproc=1
%NoSave
%Mem=1900MB
#P OB98/GEN NMR

erre ene a

0 1
  C     -178.476      -3.898    -508.094
  O     -177.433      -4.674    -507.536
  H     -179.366      -4.523    -508.191
  H     -178.188      -3.537    -509.086
  H     -178.706      -3.051    -507.442
  P     -176.014      -3.943    -507.370
  C     -176.562      -2.374    -505.382
  O     -176.324      -2.484    -506.777
  C     -175.679      -1.289    -504.773
  O     -174.294      -1.699    -504.774
  C     -175.742       0.052    -505.494
  O     -176.856       0.812    -505.057
  C     -174.412       0.670    -505.086
  O     -174.489       1.234    -503.759
  C     -173.473      -0.545    -505.107
  N     -169.620       0.921    -508.020
  C     -170.069       1.426    -506.816
  N     -169.412       2.501    -506.327
  N     -171.082       0.933    -506.155
  C     -171.680      -0.103    -506.789
  C     -171.332      -0.693    -507.983
  C     -170.176      -0.169    -508.677
  O     -169.678      -0.625    -509.703
  N     -172.174      -1.733    -508.286
  C     -173.046      -1.748    -507.297
  N     -172.792      -0.774    -506.367
  O     -175.572      -3.639    -508.881
  O     -174.970      -4.727    -506.652
  H     -175.129       1.966    -503.760
  H     -174.608      -3.767    -508.957
  H     -168.817       1.322    -508.469
  H     -173.868      -2.445    -507.205
  H     -172.695      -0.472    -504.339
  H     -174.127       1.487    -505.751
  H     -168.837       3.088    -506.912
  H     -175.759      -0.086    -506.582
  H     -169.790       2.913    -505.483
  H     -175.977      -1.175    -503.722
  H     -176.337      -3.334    -504.907
  H     -177.616      -2.130    -505.214
  P     -177.523       1.840    -506.088
  C     -178.882      -0.057    -507.227
  O     -177.966       1.015    -507.394
  O     -176.270       2.699    -506.595
  O     -178.572       2.720    -505.500
  H     -176.288       3.584    -506.184
  H     -179.081      -0.508    -508.177
  H     -179.795       0.315    -506.811
  H     -178.461      -0.787    -506.567

 6  7  8  9  10  11  12  13  14  15  26  29  33  34 0
 6-311+G(2d,p)
 ****
 36  38  39  40  41 0
 6-311+G(2d,p)
 ****
 1  2  3  4  5  16  17  18  19  20  21  22  23  24  25 0
 3-21G
 ****
 27  28  30  31  32  35  37  42  43  44  45  46  47 0
 3-21G
 ****
 48  49 0
 3-21G
 ****


