%nproc=1
%NoSave
%Mem=1900MB
#P OB98/GEN NMR

erre ene a

0 1
  C      149.738     -45.119      83.702
  O      149.922     -46.346      83.024
  H      149.055     -44.496      83.118
  H      150.690     -44.592      83.807
  H      149.298     -45.290      84.688
  P      150.892     -47.437      83.682
  C      148.909     -48.777      84.650
  O      150.090     -48.040      84.933
  C      148.740     -49.903      85.663
  O      149.865     -50.803      85.606
  C      148.639     -49.426      87.111
  O      147.322     -48.983      87.396
  C      149.015     -50.701      87.847
  O      147.899     -51.611      87.844
  C      150.149     -51.246      86.962
  N      153.976     -51.738      90.250
  C      152.735     -52.344      90.236
  N      152.462     -53.167      91.272
  N      151.839     -52.146      89.305
  C      152.227     -51.244      88.373
  C      153.422     -50.566      88.290
  C      154.427     -50.837      89.295
  O      155.545     -50.334      89.335
  N      153.427     -49.684      87.240
  C      152.252     -49.857      86.668
  N      151.479     -50.783      87.327
  O      152.279     -46.977      84.018
  O      150.896     -48.641      82.631
  H      147.335     -51.362      88.599
  H      151.632     -48.556      81.999
  H      154.616     -51.917      91.005
  H      151.913     -49.342      85.777
  H      150.180     -52.340      86.953
  H      149.293     -50.529      88.887
  H      152.985     -53.129      92.136
  H      149.387     -48.659      87.339
  H      151.539     -53.581      91.306
  H      147.852     -50.481      85.378
  H      149.007     -49.183      83.638
  H      148.034     -48.119      84.682
  P      147.061     -47.735      88.372
  C      147.094     -46.209      86.287
  O      147.629     -46.463      87.578
  O      147.597     -47.898      89.753
  O      145.484     -47.503      88.315
  H      144.981     -48.031      88.983
  H      147.558     -45.338      85.874
  H      146.039     -46.049      86.363
  H      147.282     -47.049      85.651

 6  7  8  9  10  11  12  13  14  15  26  29  33  34 0
 6-311+G(2d,p)
 ****
 36  38  39  40  41 0
 6-311+G(2d,p)
 ****
 1  2  3  4  5  16  17  18  19  20  21  22  23  24  25 0
 3-21G
 ****
 27  28  30  31  32  35  37  42  43  44  45  46  47 0
 3-21G
 ****
 48  49 0
 3-21G
 ****


