%nproc=1
%NoSave
%Mem=1900MB
#P OB98/GEN NMR

erre ene a

0 1
  C      285.261    -271.405    -270.517
  O      285.415    -271.077    -269.150
  H      284.363    -272.014    -270.657
  H      285.153    -270.482    -271.089
  H      286.140    -271.946    -270.878
  P      285.620    -272.304    -268.136
  C      288.111    -272.961    -267.835
  O      286.939    -273.074    -268.626
  C      288.924    -274.250    -267.910
  O      288.098    -275.379    -267.558
  C      289.486    -274.569    -269.292
  O      290.664    -273.827    -269.566
  C      289.784    -276.051    -269.141
  O      291.020    -276.229    -268.420
  C      288.601    -276.531    -268.284
  N      287.027    -280.663    -270.858
  C      288.133    -280.427    -270.120
  N      288.474    -279.307    -269.447
  C      287.519    -278.373    -269.574
  C      286.328    -278.471    -270.273
  C      286.093    -279.682    -270.947
  N      284.985    -279.886    -271.756
  N      285.609    -277.296    -270.186
  C      286.363    -276.496    -269.463
  N      287.523    -277.102    -269.065
  O      284.424    -273.296    -268.537
  O      285.580    -271.946    -266.688
  H      291.305    -277.147    -268.580
  H      283.677    -273.159    -267.927
  H      288.844    -281.245    -270.068
  H      286.114    -275.474    -269.208
  H      288.906    -277.273    -267.539
  H      289.892    -276.571    -270.098
  H      288.732    -274.434    -270.074
  H      289.731    -274.183    -267.170
  H      287.831    -272.771    -266.793
  H      285.153    -280.543    -272.512
  H      284.477    -279.043    -271.987
  H      288.703    -272.118    -268.204
  P      290.851    -273.243    -271.049
  C      289.874    -270.977    -270.276
  O      289.790    -272.047    -271.205
  O      290.250    -274.408    -271.967
  O      292.252    -272.918    -271.434
  H      290.920    -274.694    -272.616
  H      289.115    -270.255    -270.494
  H      290.836    -270.515    -270.350
  H      289.734    -271.354    -269.284

 6  7  8  9  10  11  12  13  14  15  25  28  32  33  34  35 0
 6-311+G(2d,p)
 ****
 36  39  40 0
 6-311+G(2d,p)
 ****
 1  2  3  4  5  16  17  18  19  20  21  22  23  24 0
 3-21G
 ****
 26  27  29  30  31  37  38  41  42  43  44  45  46  47  48 0
 3-21G
 ****


