%nproc=1
%NoSave
%Mem=1900MB
#P OB98/GEN NMR

erre ene a

0 1
  C     -447.160    -120.051     -53.599
  O     -446.634    -120.091     -54.916
  P     -447.662    -120.179     -56.146
  C     -445.643    -120.433     -57.758
  O     -446.900    -120.944     -57.341
  C     -445.052    -121.263     -58.897
  O     -444.523    -122.504     -58.348
  C     -446.066    -121.656     -59.993
  O     -445.337    -121.698     -61.238
  C     -446.475    -123.063     -59.602
  O     -447.015    -123.789     -60.698
  C     -445.144    -123.599     -59.075
  N     -446.214    -128.607     -58.872
  C     -446.076    -127.755     -59.913
  N     -445.789    -126.431     -59.892
  C     -445.633    -126.007     -58.625
  C     -445.772    -126.742     -57.458
  C     -446.063    -128.117     -57.615
  N     -446.185    -128.991     -56.554
  N     -445.566    -125.947     -56.352
  C     -445.301    -124.751     -56.839
  N     -445.313    -124.738     -58.200
  O     -447.730    -118.662     -56.658
  O     -449.017    -120.704     -55.809
  H     -446.334    -123.860     -61.394
  H     -448.611    -118.282     -56.468
  H     -446.219    -128.190     -60.904
  H     -445.113    -123.863     -56.236
  H     -444.456    -123.898     -59.889
  H     -447.225    -123.019     -58.810
  H     -446.918    -120.970     -60.074
  H     -444.207    -120.711     -59.333
  H     -444.955    -120.463     -56.912
  H     -446.263    -129.971     -56.751
  H     -445.897    -128.668     -55.632
  H     -445.761    -119.384     -58.070
  P     -445.496    -120.425     -62.208
  C     -443.357    -121.007     -63.559
  O     -444.770    -120.804     -63.581
  O     -444.526    -119.326     -61.539
  O     -446.902    -119.923     -62.337
  H     -444.854    -118.434     -61.756
  H     -443.104    -121.772     -64.299
  H     -443.002    -121.329     -62.577
  H     -442.856    -120.066     -63.832
  H     -446.356    -119.993     -52.895
  H     -447.731    -120.937     -53.416
  H     -447.789    -119.192     -53.492

 3  4  5  6  7  8  9  10  11  12  22  25  29  30  31  32 0
 6-311+G(2d,p)
 ****
 33  36  37 0
 6-311+G(2d,p)
 ****
 1  2  13  14  15  16  17  18  19  20  21  23  24  26 0
 3-21G
 ****
 27  28  34  35  38  39  40  41  42  43  44  45  46  47  48 0
 3-21G
 ****


