%nproc=1
%NoSave
%Mem=1900MB
#P OB98/GEN NMR

erre ene a

0 1
  C      -19.401     369.489     384.579
  O      -19.106     370.482     385.534
  P      -18.942     372.033     385.185
  C      -16.337     371.887     385.392
  O      -17.538     372.540     385.780
  C      -15.136     372.429     386.184
  O      -13.923     371.832     385.650
  C      -15.004     373.956     386.022
  O      -14.664     374.642     387.221
  C      -14.041     374.088     384.848
  O      -13.402     375.352     384.766
  C      -13.114     372.888     385.056
  N      -10.628     374.001     380.771
  C      -10.897     374.813     381.856
  N      -10.625     376.127     381.696
  N      -11.413     374.375     382.979
  C      -11.738     373.062     382.944
  C      -11.516     372.161     381.931
  C      -10.914     372.649     380.705
  O      -10.759     371.981     379.683
  N      -12.038     370.918     382.227
  C      -12.598     371.085     383.405
  N      -12.469     372.372     383.871
  O      -20.141     372.898     385.378
  O      -18.633     371.977     383.598
  H      -13.116     375.595     385.664
  H      -19.037     372.776     383.196
  H      -10.309     374.413     379.899
  H      -13.136     370.305     383.953
  H      -12.317     373.123     385.766
  H      -14.626     373.969     383.920
  H      -10.370     376.513     380.797
  H      -15.972     374.400     385.739
  H      -11.041     376.774     382.369
  H      -15.222     372.131     387.233
  H      -16.209     372.077     384.328
  H      -16.431     370.799     385.530
  P      -15.333     375.948     387.845
  C      -13.934     377.617     386.479
  O      -14.280     377.148     387.776
  O      -15.437     375.654     389.414
  O      -16.692     376.281     387.297
  H      -16.276     375.998     389.766
  H      -13.025     378.221     386.552
  H      -14.739     378.238     386.085
  H      -13.748     376.774     385.801
  H      -19.459     368.536     385.062
  H      -18.630     369.467     383.837
  H      -20.338     369.710     384.113

 3  4  5  6  7  8  9  10  11  12  23  26  30  31 0
 6-311+G(2d,p)
 ****
 33  35  36  37  38 0
 6-311+G(2d,p)
 ****
 1  2  13  14  15  16  17  18  19  20  21  22  24  25 0
 3-21G
 ****
 27  28  29  32  34  39  40  41  42  43  44  45  46  47  48  49 0
 3-21G
 ****


