%nproc=1
%NoSave
%Mem=1900MB
#P OB98/GEN NMR

erre ene a

0 1
  C      631.899     126.018    -106.247
  O      630.833     125.130    -106.536
  P      631.156     123.865    -107.476
  C      629.211     124.278    -109.158
  O      630.619     124.256    -108.938
  C      628.905     124.495    -110.637
  O      629.325     125.808    -111.043
  C      629.640     123.526    -111.558
  O      629.011     122.261    -111.550
  C      629.542     124.255    -112.893
  O      628.315     123.947    -113.565
  C      629.584     125.744    -112.467
  N      630.836     126.391    -112.811
  C      630.844     127.102    -114.018
  O      629.828     127.140    -114.727
  N      631.999     127.730    -114.403
  C      633.068     127.639    -113.661
  N      634.179     128.282    -114.093
  C      633.106     126.877    -112.394
  C      631.967     126.286    -112.034
  O      630.114     122.764    -106.976
  O      632.573     123.386    -107.410
  H      628.309     124.502    -114.383
  H      630.450     121.864    -107.146
  H      634.011     126.838    -111.811
  H      631.905     125.707    -111.122
  H      628.764     126.297    -112.951
  H      630.357     123.972    -113.570
  H      630.688     123.432    -111.265
  H      627.819     124.412    -110.781
  H      634.125     128.781    -114.972
  H      628.767     125.100    -108.583
  H      635.048     128.293    -113.575
  H      628.782     123.337    -108.798
  P      629.750     121.061    -112.321
  C      627.761     120.589    -113.866
  O      629.097     121.041    -113.782
  O      629.075     119.769    -111.639
  O      631.234     121.021    -112.253
  H      629.531     118.958    -111.956
  H      627.388     120.776    -114.877
  H      627.126     121.130    -113.159
  H      627.714     119.520    -113.672
  H      631.545     126.807    -105.617
  H      632.276     126.432    -107.159
  H      632.681     125.486    -105.747

 3  4  5  6  7  8  9  10  11  12  13  21  23  27  28  29  30  32 0
 6-311+G(2d,p)
 ****
 34  35 0
 6-311+G(2d,p)
 ****
 1  2  14  15  16  17  18  19  20  22  24  25  26 0
 3-21G
 ****
 31  33  36  37  38  39  40  41  42  43  44  45  46 0
 3-21G
 ****


