%nproc=1
%NoSave
%Mem=1900MB
#P OB98/GEN NMR

erre ene a

0 1
  C      491.888     305.291     593.335
  O      491.986     304.815     594.663
  H      491.451     306.295     593.357
  H      491.245     304.635     592.742
  H      492.883     305.348     592.883
  P      492.576     303.331     594.851
  C      494.886     304.044     593.954
  O      494.151     303.556     595.072
  C      496.241     303.342     593.865
  O      496.919     303.803     592.667
  C      497.158     303.627     595.053
  O      497.890     302.445     595.382
  C      498.115     304.683     594.526
  O      499.356     304.687     595.217
  C      498.212     304.298     593.046
  N      502.137     307.135     591.441
  C      502.084     305.989     592.145
  N      500.989     305.286     592.519
  C      499.871     305.866     592.044
  C      499.770     307.036     591.318
  C      500.975     307.696     591.021
  N      501.039     308.875     590.327
  N      498.444     307.331     591.057
  C      497.757     306.344     591.602
  N      498.582     305.442     592.226
  O      492.213     302.352     593.785
  O      492.067     302.966     596.323
  H      499.913     305.409     594.849
  H      492.191     303.711     596.941
  H      503.040     305.576     592.456
  H      496.680     306.246     591.588
  H      498.957     303.515     592.869
  H      497.662     305.679     594.637
  H      496.609     303.976     595.930
  H      496.074     302.266     593.733
  H      495.038     305.124     594.045
  H      501.945     309.275     590.141
  H      500.187     309.303     589.979
  H      494.292     303.849     593.053
  P      498.108     302.090     596.930
  C      496.031     300.557     597.108
  O      497.450     300.653     597.225
  O      497.758     303.166     597.904
  O      499.676     301.757     596.989
  H      500.039     302.099     597.833
  H      495.722     299.557     597.328
  H      495.737     300.810     596.111
  H      495.570     301.233     597.798

 6  7  8  9  10  11  12  13  14  15  25  28  32  33  34  35 0
 6-311+G(2d,p)
 ****
 36  39  40 0
 6-311+G(2d,p)
 ****
 1  2  3  4  5  16  17  18  19  20  21  22  23  24 0
 3-21G
 ****
 26  27  29  30  31  37  38  41  42  43  44  45  46  47 0
 3-21G
 ****
 48 0
 3-21G
 ****


