%nproc=1
%NoSave
%Mem=1900MB
#P OB98/GEN NMR

erre ene a

0 1
  C     -109.340    -180.400     160.515
  O     -110.684    -180.840     160.445
  H     -109.196    -179.598     159.786
  H     -108.661    -181.223     160.272
  H     -109.122    -180.014     161.513
  P     -111.107    -182.008     161.462
  C     -110.612    -183.807     159.667
  O     -111.587    -183.206     160.509
  C     -111.267    -184.811     158.724
  O     -110.294    -185.368     157.821
  C     -111.912    -186.001     159.422
  O     -113.194    -185.659     159.924
  C     -112.004    -186.993     158.271
  O     -113.140    -186.673     157.443
  C     -110.699    -186.727     157.494
  N     -105.810    -187.901     156.463
  C     -106.670    -187.036     155.880
  N     -107.965    -186.809     156.179
  C     -108.362    -187.584     157.200
  C     -107.601    -188.511     157.894
  C     -106.259    -188.652     157.496
  N     -105.384    -189.527     158.102
  N     -108.349    -189.121     158.879
  C     -109.526    -188.534     158.815
  N     -109.597    -187.622     157.791
  O     -112.043    -181.610     162.549
  O     -109.670    -182.518     161.954
  H     -112.956    -185.816     157.012
  H     -109.035    -182.516     161.217
  H     -106.260    -186.448     155.062
  H     -110.351    -188.720     159.494
  H     -110.855    -186.770     156.412
  H     -112.141    -188.019     158.616
  H     -111.259    -186.414     160.198
  H     -112.003    -184.269     158.115
  H     -109.843    -184.307     160.271
  H     -104.499    -189.689     157.647
  H     -105.754    -190.171     158.785
  H     -110.134    -183.006     159.094
  P     -113.717    -186.266     161.313
  C     -114.470    -188.436     160.160
  O     -114.871    -187.320     160.948
  O     -114.104    -185.255     162.337
  O     -112.521    -187.199     161.821
  H     -112.427    -187.132     162.790
  H     -115.315    -189.067     159.979
  H     -113.717    -188.989     160.682
  H     -114.077    -188.091     159.227

 6  7  8  9  10  11  12  13  14  15  25  28  32  33  34  35 0
 6-311+G(2d,p)
 ****
 36  39  40 0
 6-311+G(2d,p)
 ****
 1  2  3  4  5  16  17  18  19  20  21  22  23  24 0
 3-21G
 ****
 26  27  29  30  31  37  38  41  42  43  44  45  46  47 0
 3-21G
 ****
 48 0
 3-21G
 ****


