%nproc=1
%NoSave
%Mem=1900MB
#P OB98/GEN NMR

erre ene a

0 1
  C     -319.724    -936.368     728.653
  O     -320.157    -935.412     727.706
  H     -318.657    -936.546     728.506
  H     -320.266    -937.307     728.511
  H     -319.883    -935.996     729.671
  P     -321.708    -935.003     727.749
  C     -322.124    -936.732     725.856
  O     -322.520    -936.255     727.133
  C     -323.209    -937.635     725.263
  O     -324.445    -936.867     725.146
  C     -322.878    -938.187     723.877
  O     -323.362    -939.535     723.777
  C     -323.689    -937.308     722.942
  O     -323.942    -937.930     721.694
  C     -324.929    -937.062     723.800
  N     -329.474    -935.564     722.230
  C     -329.042    -936.796     722.683
  N     -329.950    -937.788     722.718
  N     -327.812    -937.044     723.062
  C     -327.011    -935.950     722.999
  C     -327.308    -934.682     722.567
  C     -328.668    -934.427     722.127
  O     -329.109    -933.368     721.706
  N     -326.203    -933.865     722.624
  C     -325.238    -934.633     723.089
  N     -325.682    -935.910     723.330
  O     -321.829    -933.890     726.601
  O     -322.208    -934.517     729.065
  H     -323.083    -938.087     721.253
  H     -322.534    -933.248     726.814
  H     -330.420    -935.436     721.942
  H     -324.218    -934.331     723.265
  H     -325.619    -937.911     723.799
  H     -323.149    -936.370     722.759
  H     -330.931    -937.673     722.468
  H     -321.807    -938.171     723.652
  H     -329.654    -938.702     723.054
  H     -323.413    -938.442     725.981
  H     -321.196    -937.293     725.952
  H     -321.959    -935.877     725.182
  P     -322.288    -940.716     723.863
  C     -320.939    -940.729     721.648
  O     -320.996    -940.303     722.992
  O     -322.969    -941.884     722.997
  O     -322.003    -941.184     725.260
  H     -323.280    -942.595     723.578
  H     -320.030    -940.382     721.202
  H     -321.775    -940.330     721.112
  H     -320.969    -941.798     721.611

 6  7  8  9  10  11  12  13  14  15  26  29  33  34 0
 6-311+G(2d,p)
 ****
 36  38  39  40  41 0
 6-311+G(2d,p)
 ****
 1  2  3  4  5  16  17  18  19  20  21  22  23  24  25 0
 3-21G
 ****
 27  28  30  31  32  35  37  42  43  44  45  46  47 0
 3-21G
 ****
 48  49 0
 3-21G
 ****


