%nproc=1
%NoSave
%Mem=1900MB
#P OB98/GEN NMR

erre ene a

0 1
  C      108.813       2.766     257.625
  O      107.678       1.994     257.944
  P      106.319       2.157     257.108
  C      105.348       1.571     259.419
  O      105.157       1.511     258.010
  C      104.051       1.217     260.140
  O      102.955       2.050     259.683
  C      103.569      -0.205     259.889
  O      104.363      -1.257     260.391
  C      102.134      -0.124     260.382
  O      102.063      -0.241     261.802
  C      101.737       1.307     259.936
  N      100.858       1.290     258.769
  C       99.728       2.096     258.846
  O       99.453       2.794     259.821
  N       98.890       2.055     257.765
  C       99.044       1.268     256.660
  O       98.229       1.247     255.747
  C      100.249       0.426     256.644
  C      101.088       0.472     257.681
  O      106.372       1.649     255.707
  O      106.004       3.723     257.221
  H      101.118      -0.242     262.051
  H      105.883       4.049     258.131
  H       98.057       2.621     257.805
  H      100.408      -0.201     255.776
  H      101.984      -0.142     257.691
  H      101.215       1.828     260.750
  H      101.513      -0.921     259.961
  H      103.526      -0.363     258.803
  H      104.185       1.416     261.206
  H      105.642       2.588     259.694
  H      106.162       0.896     259.706
  P      105.119      -2.315     259.456
  C      104.879      -4.597     260.663
  O      105.701      -3.485     260.385
  O      106.021      -1.757     258.406
  O      103.882      -3.051     258.740
  H      104.155      -3.334     257.848
  H      105.415      -5.267     261.341
  H      104.650      -5.142     259.742
  H      103.952      -4.278     261.148
  H      109.613       2.516     258.290
  H      108.577       3.805     257.726
  H      109.110       2.564     256.617

 3  4  5  6  7  8  9  10  11  12  13  23  28  29  30  31  32 0
 6-311+G(2d,p)
 ****
 33  34 0
 6-311+G(2d,p)
 ****
 1  2  14  15  16  17  18  19  20  21  22  24  25  26  27 0
 3-21G
 ****
 35  36  37  38  39  40  41  42  43  44  45 0
 3-21G
 ****


