%nproc=1
%NoSave
%Mem=1900MB
#P OB98/GEN NMR

erre ene a

0 1
  C     -719.180    -899.072    1465.026
  O     -719.359    -898.302    1463.843
  P     -720.797    -897.822    1463.304
  C     -720.435    -895.272    1462.904
  O     -720.617    -896.572    1462.305
  C     -719.630    -894.352    1461.996
  O     -718.293    -894.822    1461.854
  C     -720.169    -894.222    1460.561
  O     -721.317    -893.372    1460.552
  C     -718.954    -893.632    1459.850
  O     -718.853    -892.232    1460.047
  C     -717.784    -894.372    1460.576
  N     -717.243    -895.492    1459.786
  C     -716.591    -895.162    1458.599
  O     -716.513    -893.972    1458.248
  N     -716.028    -896.182    1457.864
  C     -716.189    -897.432    1458.197
  N     -715.616    -898.362    1457.433
  C     -716.995    -897.822    1459.399
  C     -717.472    -896.812    1460.122
  O     -721.813    -897.582    1464.397
  O     -721.290    -899.002    1462.316
  H     -717.938    -891.952    1459.804
  H     -722.255    -899.082    1462.356
  H     -717.128    -898.882    1459.641
  H     -718.033    -897.022    1461.035
  H     -716.938    -893.692    1460.799
  H     -718.966    -893.822    1458.770
  H     -720.421    -895.212    1460.184
  H     -719.583    -893.362    1462.504
  H     -715.092    -898.092    1456.629
  H     -719.902    -895.422    1463.875
  H     -715.678    -899.372    1457.615
  H     -721.429    -894.862    1463.125
  P     -722.557    -893.732    1459.603
  C     -724.232    -894.282    1461.494
  O     -723.901    -893.392    1460.399
  O     -722.508    -895.082    1458.977
  O     -722.530    -892.582    1458.470
  H     -722.867    -892.942    1457.646
  H     -724.913    -893.762    1462.160
  H     -723.367    -894.602    1462.007
  H     -724.770    -895.132    1461.052
  H     -718.138    -899.264    1465.172
  H     -719.704    -900.000    1464.930
  H     -719.564    -898.531    1465.865

 3  4  5  6  7  8  9  10  11  12  13  23  27  28  29  30  32 0
 6-311+G(2d,p)
 ****
 34  35 0
 6-311+G(2d,p)
 ****
 1  2  14  15  16  17  18  19  20  21  22  24  25  26 0
 3-21G
 ****
 31  33  36  37  38  39  40  41  42  43  44  45  46 0
 3-21G
 ****


