%nproc=1
%NoSave
%Mem=1900MB
#P OB98/GEN NMR

erre ene a

0 1
  C     -890.390      76.608    1552.701
  O     -891.510      76.310    1551.849
  P     -892.390      75.027    1552.181
  C     -894.700      76.224    1552.409
  O     -893.650      75.503    1553.044
  C     -894.730      77.673    1552.924
  O     -893.500      78.376    1552.632
  C     -895.840      78.505    1552.303
  O     -897.080      78.301    1552.967
  C     -895.330      79.920    1552.580
  O     -895.620      80.281    1553.953
  C     -893.820      79.765    1552.372
  N     -892.640      83.631    1549.334
  C     -893.030      83.627    1550.657
  N     -893.100      84.825    1551.265
  N     -893.310      82.532    1551.323
  C     -893.180      81.408    1550.605
  C     -892.800      81.283    1549.287
  C     -892.510      82.496    1548.544
  O     -892.180      82.556    1547.365
  N     -892.790      79.973    1548.894
  C     -893.120      79.307    1549.981
  N     -893.390      80.123    1551.039
  O     -891.500      74.248    1553.251
  O     -892.710      74.175    1550.994
  H     -895.490      79.461    1554.477
  H     -891.680      73.285    1553.202
  H     -892.450      84.498    1548.865
  H     -893.190      78.219    1550.038
  H     -893.230      80.362    1553.080
  H     -895.820      80.658    1551.943
  H     -892.860      85.696    1550.824
  H     -895.910      78.330    1551.223
  H     -893.350      84.844    1552.241
  H     -894.860      77.641    1554.011
  H     -895.650      75.737    1552.595
  H     -894.540      76.184    1551.325
  P     -898.090      77.202    1552.356
  C     -898.990      76.237    1554.604
  O     -898.170      76.037    1553.459
  O     -897.220      76.546    1551.181
  O     -899.370      77.748    1551.867
  H     -897.810      76.267    1550.451
  H     -899.060      75.308    1555.151
  H     -900.000      76.550    1554.297
  H     -898.540      77.003    1555.257
  H     -889.902      77.493    1552.351
  H     -889.701      75.790    1552.683
  H     -890.735      76.762    1553.702

 3  4  5  6  7  8  9  10  11  12  23  26  30  31 0
 6-311+G(2d,p)
 ****
 33  35  36  37  38 0
 6-311+G(2d,p)
 ****
 1  2  13  14  15  16  17  18  19  20  21  22  24  25 0
 3-21G
 ****
 27  28  29  32  34  39  40  41  42  43  44  45  46  47  48  49 0
 3-21G
 ****


