%nproc=1
%NoSave
%Mem=1900MB
#P OB98/GEN NMR

erre ene a

0 1
  C      224.301      54.644     131.496
  O      223.268      55.560     131.191
  H      225.200      55.205     131.766
  H      224.518      54.030     130.619
  H      224.018      54.005     132.339
  P      221.780      54.967     131.093
  C      221.597      55.414     128.540
  O      221.595      54.450     129.583
  C      221.121      54.785     127.235
  O      222.096      53.835     126.750
  C      219.801      54.027     127.348
  O      218.685      54.901     127.249
  C      219.893      53.120     126.133
  O      219.595      53.876     124.938
  C      221.378      52.724     126.140
  N      222.480      47.786     125.776
  C      222.174      48.701     124.788
  N      222.152      48.232     123.520
  N      221.910      49.960     125.016
  C      221.946      50.285     126.330
  C      222.230      49.468     127.403
  C      222.536      48.081     127.134
  O      222.824      47.232     127.972
  N      222.169      50.150     128.589
  C      221.828      51.374     128.237
  N      221.677      51.509     126.878
  O      220.869      56.286     131.158
  O      221.407      53.998     132.165
  H      218.731      54.306     125.081
  H      220.494      56.366     132.055
  H      222.667      46.824     125.546
  H      221.686      52.197     128.922
  H      221.778      52.590     125.131
  H      219.182      52.291     126.168
  H      222.323      47.269     123.277
  H      219.759      53.416     128.260
  H      221.934      48.887     122.778
  H      221.044      55.584     126.487
  H      222.616      55.797     128.411
  H      220.935      56.240     128.821
  P      217.331      54.489     128.002
  C      216.297      53.586     125.801
  O      216.659      53.305     127.146
  O      216.378      55.743     127.716
  O      217.466      54.229     129.463
  H      216.214      56.234     128.545
  H      215.865      52.713     125.358
  H      217.168      53.872     125.249
  H      215.585      54.385     125.783

 6  7  8  9  10  11  12  13  14  15  26  29  33  34 0
 6-311+G(2d,p)
 ****
 36  38  39  40  41 0
 6-311+G(2d,p)
 ****
 1  2  3  4  5  16  17  18  19  20  21  22  23  24  25 0
 3-21G
 ****
 27  28  30  31  32  35  37  42  43  44  45  46  47 0
 3-21G
 ****
 48  49 0
 3-21G
 ****


