%nproc=1
%NoSave
%Mem=1900MB
#P OB98/GEN NMR

erre ene a

0 1
  C      214.799    -110.104     -90.002
  O      214.447    -111.467     -89.872
  H      215.348    -109.971     -90.938
  H      215.440    -109.799     -89.171
  H      213.899    -109.482     -90.029
  P      213.649    -111.875     -88.541
  C      213.856    -110.798     -86.191
  O      214.536    -111.346     -87.310
  C      214.819    -109.985     -85.330
  O      215.219    -108.777     -86.014
  C      214.251    -109.556     -83.983
  O      214.359    -110.596     -83.026
  C      215.135    -108.361     -83.655
  O      216.403    -108.777     -83.110
  C      215.319    -107.710     -85.033
  N      214.690    -102.740     -85.648
  C      215.835    -103.469     -85.411
  N      216.977    -102.762     -85.263
  N      215.861    -104.772     -85.315
  C      214.640    -105.341     -85.453
  C      213.435    -104.729     -85.706
  C      213.428    -103.288     -85.840
  O      212.457    -102.589     -86.115
  N      212.422    -105.646     -85.797
  C      213.004    -106.806     -85.561
  N      214.348    -106.671     -85.328
  O      213.833    -113.465     -88.467
  O      212.210    -111.487     -88.512
  H      216.831    -109.393     -83.728
  H      213.050    -113.857     -88.036
  H      214.736    -101.740     -85.729
  H      212.501    -107.762     -85.545
  H      216.311    -107.257     -85.146
  H      214.674    -107.711     -82.911
  H      216.965    -101.787     -84.996
  H      213.212    -109.221     -84.089
  H      217.819    -103.288     -85.066
  H      215.724    -110.591     -85.189
  H      213.441    -111.614     -85.592
  H      213.038    -110.161     -86.543
  P      213.585    -110.409     -81.631
  C      213.523    -108.503     -79.863
  O      214.236    -109.125     -80.923
  O      214.123    -111.628     -80.745
  O      212.099    -110.403     -81.739
  H      213.529    -111.775     -79.984
  H      214.083    -107.668     -79.498
  H      213.376    -109.207     -79.071
  H      212.573    -108.166     -80.222

 6  7  8  9  10  11  12  13  14  15  26  29  33  34 0
 6-311+G(2d,p)
 ****
 36  38  39  40  41 0
 6-311+G(2d,p)
 ****
 1  2  3  4  5  16  17  18  19  20  21  22  23  24  25 0
 3-21G
 ****
 27  28  30  31  32  35  37  42  43  44  45  46  47 0
 3-21G
 ****
 48  49 0
 3-21G
 ****


