%nproc=1
%NoSave
%Mem=1900MB
#P OB98/GEN NMR

erre ene a

0 1
  C       20.940     190.629    -227.627
  O       21.658     191.846    -227.671
  H       21.582     189.830    -228.007
  H       20.048     190.697    -228.255
  H       20.656     190.394    -226.598
  P       20.888     193.147    -227.136
  C       22.169     194.949    -228.517
  O       21.934     194.358    -227.248
  C       23.582     195.541    -228.578
  O       23.706     196.562    -227.543
  C       24.698     194.515    -228.323
  O       25.870     194.952    -229.031
  C       24.921     194.666    -226.827
  O       26.125     194.051    -226.430
  C       24.825     196.185    -226.710
  N       26.772     196.339    -221.987
  C       27.261     195.846    -223.144
  N       26.690     195.853    -224.365
  C       25.494     196.464    -224.328
  C       24.869     197.024    -223.226
  C       25.559     196.941    -222.004
  N       25.059     197.433    -220.821
  N       23.644     197.558    -223.579
  C       23.534     197.327    -224.871
  N       24.623     196.662    -225.364
  O       20.775     192.886    -225.562
  O       19.557     193.407    -227.757
  H       26.829     194.200    -227.096
  H       19.909     192.489    -225.353
  H       28.242     195.382    -223.081
  H       22.692     197.608    -225.492
  H       25.717     196.680    -227.109
  H       24.118     194.180    -226.263
  H       24.437     193.502    -228.640
  H       23.717     196.048    -229.540
  H       21.428     195.740    -228.674
  H       22.058     194.192    -229.299
  H       25.611     197.320    -219.985
  H       24.149     197.869    -220.816
  P       26.624     193.921    -230.007
  C       29.207     194.328    -230.090
  O       27.925     194.643    -230.610
  O       25.644     193.891    -231.278
  O       26.829     192.546    -229.465
  H       25.723     193.029    -231.728
  H       29.951     194.898    -230.606
  H       29.400     193.284    -230.225
  H       29.237     194.564    -229.047

 6  7  8  9  10  11  12  13  14  15  25  28  32  33  34  35 0
 6-311+G(2d,p)
 ****
 36  37  40 0
 6-311+G(2d,p)
 ****
 1  2  3  4  5  16  17  18  19  20  21  22  23  24 0
 3-21G
 ****
 26  27  29  30  31  38  39 41  42  43  44  45  46  47  48 0
 3-21G
 ****


