%nproc=1
%NoSave
%Mem=1900MB
#P OB98/GEN NMR

erre ene a

0 1
  C     -675.126    -181.151     607.254
  O     -676.265    -180.817     606.488
  H     -674.822    -180.272     607.831
  H     -674.301    -181.445     606.593
  H     -675.342    -181.970     607.950
  P     -677.102    -182.005     605.804
  C     -679.346    -180.730     606.060
  O     -678.415    -181.330     605.163
  C     -680.404    -179.925     605.286
  O     -679.780    -178.728     604.741
  C     -680.951    -180.728     604.095
  O     -682.287    -180.353     603.752
  C     -680.015    -180.312     602.957
  O     -680.602    -180.492     601.666
  C     -679.744    -178.851     603.311
  N     -677.049    -177.325     599.260
  C     -678.279    -177.920     599.296
  N     -678.889    -178.144     598.095
  N     -678.879    -178.301     600.412
  C     -678.116    -178.072     601.521
  C     -676.882    -177.503     601.605
  C     -676.249    -177.056     600.370
  O     -675.145    -176.541     600.278
  N     -676.437    -177.450     602.907
  C     -677.397    -177.997     603.610
  N     -678.467    -178.369     602.811
  O     -677.704    -182.812     607.052
  O     -676.335    -182.901     604.885
  H     -680.780    -181.453     601.549
  H     -677.933    -183.712     606.784
  H     -676.657    -177.021     598.383
  H     -677.400    -178.134     604.678
  H     -680.520    -178.200     602.902
  H     -679.128    -180.941     603.006
  H     -678.387    -178.062     597.231
  H     -680.914    -181.803     604.251
  H     -679.619    -178.853     598.093
  H     -681.194    -179.602     605.963
  H     -678.771    -180.073     606.717
  H     -679.818    -181.489     606.674
  P     -683.483    -180.913     604.654
  C     -685.112    -178.873     604.092
  O     -684.876    -180.273     604.157
  O     -683.241    -180.248     606.079
  O     -683.538    -182.404     604.722
  H     -683.031    -180.923     606.737
  H     -686.104    -178.695     603.734
  H     -684.406    -178.423     603.426
  H     -685.003    -178.447     605.068

 6  7  8  9  10  11  12  13  14  15  26  29  33  34 0
 6-311+G(2d,p)
 ****
 36  38  39  40  41 0
 6-311+G(2d,p)
 ****
 1  2  3  4  5  16  17  18  19  20  21  22  23  24  25 0
 3-21G
 ****
 27  28  30  31  32  35  37  42  43  44  45  46  47 0
 3-21G
 ****
 48  49 0
 3-21G
 ****


