%nproc=1
%NoSave
%Mem=1900MB
#P OB98/GEN NMR

erre ene a

0 1
  C      305.884    -202.015    -669.525
  O      307.239    -201.925    -669.132
  H      305.801    -201.680    -670.559
  H      305.276    -201.360    -668.894
  H      305.517    -203.037    -669.453
  P      307.704    -202.678    -667.802
  C      306.467    -200.962    -666.313
  O      306.632    -202.335    -666.658
  C      306.002    -200.810    -664.860
  O      307.030    -201.311    -663.970
  C      305.792    -199.336    -664.521
  O      304.805    -199.148    -663.510
  C      307.149    -198.915    -663.970
  O      307.084    -197.758    -663.143
  C      307.567    -200.189    -663.232
  N      311.686    -199.348    -660.343
  C      310.387    -198.918    -660.161
  N      310.160    -198.142    -659.080
  N      309.402    -199.207    -660.981
  C      309.789    -199.927    -662.059
  C      311.054    -200.387    -662.362
  C      312.124    -200.102    -661.435
  O      313.291    -200.447    -661.557
  N      311.056    -201.080    -663.556
  C      309.816    -201.016    -663.973
  N      309.000    -200.344    -663.091
  O      308.996    -201.850    -667.324
  O      308.021    -204.136    -667.949
  H      307.933    -197.690    -662.671
  H      309.577    -202.406    -666.782
  H      312.397    -199.111    -659.685
  H      309.445    -201.445    -664.904
  H      307.132    -200.209    -662.223
  H      307.804    -198.678    -664.818
  H      310.913    -197.749    -658.530
  H      305.517    -198.749    -665.397
  H      309.303    -197.578    -659.087
  H      305.108    -201.420    -664.677
  H      305.713    -200.543    -666.996
  H      307.399    -200.417    -666.479
  P      303.346    -198.658    -663.981
  C      303.846    -196.085    -663.740
  O      303.513    -197.179    -664.584
  O      302.569    -198.438    -662.605
  O      302.654    -199.620    -664.882
  H      301.927    -199.156    -662.462
  H      303.911    -195.191    -664.324
  H      304.788    -196.272    -663.268
  H      303.090    -195.968    -662.992

 6  7  8  9  10  11  12  13  14  15  26  29  33  34 0
 6-311+G(2d,p)
 ****
 36  38  39  40  41 0
 6-311+G(2d,p)
 ****
 1  2  3  4  5  16  17  18  19  20  21  22  23  24  25 0
 3-21G
 ****
 27  28  30  31  32  35  37  42  43  44  45  46  47 0
 3-21G
 ****
 48  49 0
 3-21G
 ****


