%nproc=1
%NoSave
%Mem=1900MB
#P OB98/GEN NMR

erre ene a

0 1
  C     -323.565    -418.902    -136.224
  O     -323.543    -418.830    -134.810
  H     -324.116    -419.801    -136.521
  H     -322.549    -418.966    -136.622
  H     -324.074    -418.028    -136.640
  P     -322.727    -417.640    -134.118
  C     -320.517    -418.728    -134.917
  O     -321.319    -417.552    -134.884
  C     -319.541    -418.746    -133.738
  O     -318.825    -419.995    -133.704
  C     -318.478    -417.655    -133.798
  O     -319.033    -416.400    -133.442
  C     -317.456    -418.211    -132.817
  O     -317.864    -417.984    -131.457
  C     -317.507    -419.724    -133.156
  N     -316.461    -420.149    -134.082
  C     -315.329    -420.735    -133.504
  O     -315.245    -420.847    -132.277
  N     -314.314    -421.154    -134.333
  C     -314.431    -421.040    -135.617
  N     -313.393    -421.477    -136.377
  C     -315.626    -420.467    -136.269
  C     -316.586    -420.036    -135.450
  O     -322.615    -417.694    -132.624
  O     -323.484    -416.315    -134.605
  H     -318.717    -418.452    -131.351
  H     -324.153    -416.040    -133.945
  H     -315.690    -420.401    -137.349
  H     -317.497    -419.596    -135.848
  H     -317.415    -420.327    -132.239
  H     -316.467    -417.753    -132.940
  H     -318.020    -417.618    -134.788
  H     -320.129    -418.675    -132.814
  H     -312.602    -421.884    -135.886
  H     -319.965    -418.715    -135.865
  H     -313.445    -421.594    -137.383
  H     -321.147    -419.625    -134.898
  P     -318.679    -415.067    -134.262
  C     -316.862    -414.388    -132.569
  O     -317.144    -414.737    -133.920
  O     -319.623    -413.929    -134.069
  O     -318.587    -415.570    -135.781
  H     -319.495    -415.698    -136.159
  H     -315.816    -414.191    -132.462
  H     -317.140    -415.197    -131.926
  H     -317.418    -413.513    -132.303

 6  7  8  9  10  11  12  13  14  15  16  26  30  31  32  33  35 0
 6-311+G(2d,p)
 ****
 37  38 0
 6-311+G(2d,p)
 ****
 1  2  3  4  5  17  18  19  20  21  22  23  24  25 0
 3-21G
 ****
 27  28  29  34  36  39  40  41  42  43  44  45  46 0
 3-21G
 ****


