%nproc=1
%NoSave
%Mem=1900MB
#P OB98/GEN NMR

erre ene a

0 1
  C      118.993    -320.267      30.218
  O      117.643    -320.683      30.231
  H      119.039    -319.226      30.549
  H      119.392    -320.325      29.202
  H      119.596    -320.878      30.894
  P      117.301    -322.217      29.921
  C      117.211    -321.916      27.360
  O      117.865    -322.545      28.454
  C      117.648    -322.543      26.032
  O      116.879    -321.941      24.960
  C      119.132    -322.339      25.715
  O      119.640    -323.510      25.075
  C      119.127    -321.181      24.738
  O      120.268    -321.191      23.880
  C      117.806    -321.396      24.003
  N      118.325    -318.063      20.238
  C      118.958    -319.273      20.451
  N      119.882    -319.641      19.538
  N      118.712    -320.049      21.473
  C      117.750    -319.562      22.296
  C      117.048    -318.384      22.192
  C      117.348    -317.523      21.069
  O      116.831    -316.436      20.837
  N      116.169    -318.236      23.236
  C      116.337    -319.322      23.965
  N      117.293    -320.154      23.444
  O      115.871    -322.602      30.140
  O      118.280    -323.042      30.878
  H      120.287    -320.324      23.421
  H      117.796    -323.417      31.636
  H      118.561    -317.498      19.441
  H      115.801    -319.553      24.876
  H      117.904    -322.104      23.168
  H      119.123    -320.232      25.290
  H      120.105    -319.103      18.714
  H      119.720    -322.126      26.608
  H      120.339    -320.536      19.654
  H      117.392    -323.609      26.050
  H      117.473    -320.853      27.369
  H      116.126    -322.014      27.484
  P      120.479    -324.570      25.941
  C      122.718    -323.310      25.852
  O      121.675    -323.798      26.685
  O      120.886    -325.811      25.218
  O      119.478    -324.912      27.147
  H      119.597    -325.851      27.396
  H      123.453    -322.817      26.453
  H      122.314    -322.617      25.144
  H      123.172    -324.128      25.332

 6  7  8  9  10  11  12  13  14  15  26  29  33  34 0
 6-311+G(2d,p)
 ****
 36  38  39  40  41 0
 6-311+G(2d,p)
 ****
 1  2  3  4  5  16  17  18  19  20  21  22  23  24  25 0
 3-21G
 ****
 27  28  30  31  32  35  37  42  43  44  45  46  47 0
 3-21G
 ****
 48  49 0
 3-21G
 ****


