%nproc=1
%NoSave
%Mem=1900MB
#P OB98/GEN NMR

erre ene a

0 1
  C     -276.469    -376.787     337.682
  O     -277.352    -376.146     338.583
  H     -275.490    -376.881     338.159
  H     -276.358    -376.193     336.772
  H     -276.842    -377.788     337.430
  P     -278.849    -375.892     338.061
  C     -279.693    -376.590     340.407
  O     -279.738    -375.621     339.371
  C     -279.691    -375.905     341.784
  O     -278.340    -375.648     342.224
  C     -280.422    -374.563     341.803
  O     -281.821    -374.744     341.954
  C     -279.788    -373.892     343.018
  O     -280.377    -374.367     344.245
  C     -278.322    -374.358     342.908
  N     -275.479    -370.207     343.360
  C     -276.172    -370.915     344.306
  N     -276.156    -370.424     345.572
  N     -276.842    -372.013     344.061
  C     -276.805    -372.375     342.754
  C     -276.138    -371.757     341.719
  C     -275.378    -370.556     342.017
  O     -274.693    -369.909     341.231
  N     -276.321    -372.433     340.541
  C     -277.125    -373.432     340.851
  N     -277.460    -373.426     342.187
  O     -279.335    -377.341     337.578
  O     -278.977    -374.879     336.967
  H     -281.301    -374.075     344.297
  H     -279.966    -377.235     336.847
  H     -274.971    -369.375     343.616
  H     -277.492    -374.181     340.159
  H     -277.859    -374.520     343.896
  H     -279.913    -372.820     343.003
  H     -275.951    -369.440     345.759
  H     -280.189    -373.976     340.896
  H     -276.675    -370.928     346.281
  H     -280.143    -376.604     342.497
  H     -278.763    -377.173     340.311
  H     -280.552    -377.256     340.327
  P     -282.780    -374.168     340.795
  C     -284.307    -376.243     340.490
  O     -284.192    -374.901     340.962
  O     -282.174    -374.811     339.455
  O     -282.841    -372.668     340.722
  H     -282.503    -374.315     338.672
  H     -285.300    -376.600     340.668
  H     -283.607    -376.865     341.008
  H     -284.100    -376.271     339.441

 6  7  8  9  10  11  12  13  14  15  26  29  33  34 0
 6-311+G(2d,p)
 ****
 36  38  39  40  41 0
 6-311+G(2d,p)
 ****
 1  2  3  4  5  16  17  18  19  20  21  22  23  24  25 0
 3-21G
 ****
 27  28  30  31  32  35  37  42  43  44  45  46  47 0
 3-21G
 ****
 48  49 0
 3-21G
 ****


