%nproc=1
%NoSave
%Mem=1900MB
#P OB98/GEN NMR

erre ene a

0 1
  C        9.080     -67.137     383.431
  O        8.095     -67.657     384.299
  H        9.833     -66.591     384.009
  H        9.568     -67.967     382.910
  H        8.628     -66.469     382.688
  P        7.140     -66.595     385.034
  C        5.559     -65.716     383.162
  O        5.745     -66.633     384.229
  C        4.104     -65.740     382.685
  O        3.860     -66.998     381.998
  C        3.085     -65.624     383.827
  O        1.991     -64.814     383.386
  C        2.618     -67.054     384.029
  O        1.319     -67.122     384.608
  C        2.702     -67.610     382.607
  N        0.514     -71.965     381.071
  C        0.209     -70.670     380.844
  N        0.847     -69.565     381.283
  C        1.941     -69.904     381.998
  C        2.382     -71.180     382.316
  C        1.613     -72.249     381.824
  N        1.899     -73.569     382.085
  N        3.524     -71.117     383.096
  C        3.764     -69.826     383.242
  N        2.829     -69.057     382.603
  O        7.786     -65.195     384.591
  O        7.041     -66.725     386.514
  H        1.413     -67.069     385.581
  H        8.570     -65.012     385.146
  H       -0.674     -70.497     380.235
  H        4.584     -69.405     383.807
  H        1.817     -67.359     382.004
  H        3.318     -67.583     384.693
  H        3.509     -65.196     384.730
  H        3.965     -64.943     381.939
  H        6.223     -65.990     382.331
  H        1.255     -74.270     381.739
  H        2.671     -73.800     382.689
  H        5.818     -64.706     383.505
  P        1.154     -64.045     384.520
  C        2.162     -61.660     384.735
  O        1.141     -62.474     384.174
  O        2.111     -64.141     385.807
  O       -0.188     -64.643     384.789
  H        1.596     -64.459     386.572
  H        2.025     -60.647     384.419
  H        3.118     -62.010     384.406
  H        2.112     -61.710     385.803

 6  7  8  9  10  11  12  13  14  15  25  28  32  33  34  35 0
 6-311+G(2d,p)
 ****
 36  39  40 0
 6-311+G(2d,p)
 ****
 1  2  3  4  5  16  17  18  19  20  21  22  23  24 0
 3-21G
 ****
 26  27  29  30  31  37  38  41  42  43  44  45  46  47 0
 3-21G
 ****
 48 0
 3-21G
 ****


