%nproc=1
%NoSave
%Mem=1900MB
#P OB98/GEN NMR

erre ene a

0 1
  C     -898.440    -228.162    -537.125
  O     -897.710    -227.786    -535.978
  P     -896.220    -227.225    -536.108
  C     -896.590    -224.747    -536.655
  O     -896.230    -226.024    -537.177
  C     -896.160    -223.632    -537.600
  O     -894.720    -223.419    -537.475
  C     -896.440    -223.898    -539.091
  O     -896.740    -222.624    -539.683
  C     -895.100    -224.387    -539.612
  O     -894.970    -224.257    -541.023
  C     -894.150    -223.510    -538.799
  N     -890.080    -224.959    -541.518
  C     -891.290    -224.500    -541.895
  N     -892.330    -224.163    -541.107
  C     -892.030    -224.326    -539.812
  C     -890.840    -224.817    -539.278
  C     -889.820    -225.124    -540.197
  N     -888.570    -225.563    -539.835
  N     -890.930    -224.897    -537.908
  C     -892.140    -224.468    -537.616
  N     -892.820    -224.057    -538.727
  O     -895.170    -228.263    -536.352
  O     -895.970    -226.465    -534.719
  H     -894.160    -224.710    -541.298
  H     -895.370    -226.995    -534.157
  H     -891.450    -224.387    -542.964
  H     -892.580    -224.440    -536.628
  H     -894.080    -222.492    -539.203
  H     -894.980    -225.448    -539.353
  H     -897.250    -224.606    -539.263
  H     -896.640    -222.699    -537.278
  H     -896.090    -224.630    -535.693
  H     -887.870    -225.619    -540.563
  H     -888.260    -225.439    -538.865
  H     -897.660    -224.709    -536.486
  P     -898.140    -222.409    -540.442
  C     -899.070    -220.462    -539.067
  O     -899.170    -221.854    -539.360
  O     -898.620    -223.588    -541.236
  O     -897.870    -221.136    -541.380
  H     -898.540    -221.103    -542.082
  H     -898.240    -220.300    -538.365
  H     -900.000    -220.130    -538.611
  H     -898.890    -219.877    -539.972
  H     -899.409    -228.509    -536.833
  H     -897.920    -228.944    -537.638
  H     -898.544    -227.318    -537.774

 3  4  5  6  7  8  9  10  11  12  22  25  29  30  31  32 0
 6-311+G(2d,p)
 ****
 33  36  37 0
 6-311+G(2d,p)
 ****
 1  2  13  14  15  16  17  18  19  20  21  23  24  26 0
 3-21G
 ****
 27  28  34  35  38  39  40  41  42  43  44  45  46  47  48 0
 3-21G
 ****


