%nproc=1
%NoSave
%Mem=1900MB
#P OB98/GEN NMR

erre ene a

0 1
  C       -1.452      82.658    -150.494
  O       -1.870      84.001    -150.372
  H       -2.172      82.016    -149.977
  H       -0.471      82.527    -150.032
  H       -1.411      82.367    -151.547
  P       -0.943      85.113    -151.061
  C       -2.175      87.397    -151.033
  O       -1.308      86.507    -150.344
  C       -3.632      86.975    -150.843
  O       -3.915      86.885    -149.419
  C       -4.645      87.953    -151.455
  O       -5.733      87.203    -152.007
  C       -5.144      88.729    -150.249
  O       -6.426      89.305    -150.473
  C       -5.118      87.639    -149.181
  N       -8.064      88.414    -145.175
  C       -8.328      87.777    -146.373
  N       -9.570      87.272    -146.535
  N       -7.450      87.652    -147.334
  C       -6.241      88.182    -147.027
  C       -5.857      88.843    -145.887
  C       -6.845      88.996    -144.839
  O       -6.678      89.569    -143.767
  N       -4.553      89.264    -145.975
  C       -4.151      88.854    -147.165
  N       -5.140      88.191    -147.839
  O       -1.579      85.276    -152.521
  O        0.513      84.796    -151.112
  H       -6.688      89.783    -149.658
  H       -0.895      85.528    -153.172
  H       -8.779      88.493    -144.475
  H       -3.166      89.014    -147.583
  H       -5.974      86.957    -149.259
  H       -4.443      89.535    -150.002
  H      -10.287      87.303    -145.827
  H       -4.218      88.602    -152.222
  H       -9.781      86.789    -147.401
  H       -3.761      85.966    -151.253
  H       -1.928      87.381    -152.100
  H       -2.030      88.410    -150.646
  P       -5.883      87.181    -153.604
  C       -7.329      85.066    -154.020
  O       -7.279      86.485    -153.980
  O       -4.794      86.095    -154.050
  O       -5.628      88.501    -154.253
  H       -4.041      86.540    -154.480
  H       -8.317      84.751    -154.283
  H       -7.073      84.673    -153.058
  H       -6.634      84.705    -154.749

 6  7  8  9  10  11  12  13  14  15  26  29  33  34 0
 6-311+G(2d,p)
 ****
 36  38  39  40  41 0
 6-311+G(2d,p)
 ****
 1  2  3  4  5  16  17  18  19  20  21  22  23  24  25 0
 3-21G
 ****
 27  28  30  31  32  35  37  42  43  44  45  46  47 0
 3-21G
 ****
 48  49 0
 3-21G
 ****


