%nproc=1
%NoSave
%Mem=1900MB
#P OB98/GEN NMR

erre ene a

0 1
  C     -147.413    -199.680     -15.925
  O     -146.511    -199.076     -16.856
  P     -145.045    -199.722     -16.939
  C     -143.975    -198.513     -14.910
  O     -144.440    -199.742     -15.451
  C     -143.421    -198.709     -13.493
  O     -143.023    -197.428     -12.916
  C     -144.427    -199.348     -12.522
  O     -143.668    -200.180     -11.635
  C     -144.979    -198.136     -11.789
  O     -145.656    -198.465     -10.588
  C     -143.699    -197.320     -11.640
  N     -144.904    -194.136      -7.839
  C     -144.756    -195.480      -7.882
  N     -144.438    -196.256      -8.938
  C     -144.258    -195.503     -10.035
  C     -144.373    -194.127     -10.152
  C     -144.712    -193.429      -8.979
  N     -144.884    -192.065      -8.930
  N     -144.133    -193.722     -11.455
  C     -143.950    -194.850     -12.120
  N     -143.933    -195.936     -11.294
  O     -144.182    -198.603     -17.690
  O     -145.010    -201.038     -17.644
  H     -146.063    -197.664     -10.206
  H     -144.084    -198.826     -18.634
  H     -144.922    -195.999      -6.940
  H     -143.827    -194.931     -13.190
  H     -143.029    -197.735     -10.875
  H     -145.695    -197.615     -12.439
  H     -145.193    -199.954     -13.018
  H     -142.520    -199.330     -13.560
  H     -144.792    -197.784     -14.877
  H     -145.135    -191.654      -8.046
  H     -144.763    -191.502      -9.759
  H     -143.213    -198.094     -15.579
  P     -143.728    -201.772     -11.824
  C     -145.092    -202.188      -9.691
  O     -145.097    -202.213     -11.106
  O     -142.639    -202.239     -10.742
  O     -143.479    -202.284     -13.205
  H     -142.802    -201.823      -9.879
  H     -146.101    -202.426      -9.331
  H     -144.815    -201.192      -9.333
  H     -144.392    -202.932      -9.304
  H     -148.353    -199.169     -15.956
  H     -147.004    -199.614     -14.938
  H     -147.557    -200.708     -16.184

 3  4  5  6  7  8  9  10  11  12  22  25  29  30  31  32 0
 6-311+G(2d,p)
 ****
 33  36  37 0
 6-311+G(2d,p)
 ****
 1  2  13  14  15  16  17  18  19  20  21  23  24  26 0
 3-21G
 ****
 27  28  34  35  38  39  40  41  42  43  44  45  46  47  48 0
 3-21G
 ****


