%nproc=1
%NoSave
%Mem=1900MB
#P OB98/GEN NMR

erre ene a

0 1
  C      -65.683     834.861    -504.275
  O      -66.941     834.452    -503.765
  P      -67.024     833.524    -502.459
  C      -66.063     835.463    -501.059
  O      -65.919     834.101    -501.449
  C      -65.897     835.617    -499.547
  O      -67.092     835.187    -498.857
  C      -64.767     834.786    -498.960
  O      -63.518     835.403    -499.220
  C      -65.157     834.759    -497.488
  O      -64.741     835.950    -496.810
  C      -66.699     834.677    -497.572
  N      -67.206     833.335    -497.336
  C      -67.300     832.947    -495.996
  O      -66.941     833.704    -495.102
  N      -67.767     831.684    -495.704
  C      -68.074     830.870    -496.683
  N      -68.522     829.632    -496.324
  C      -67.956     831.237    -498.098
  C      -67.514     832.468    -498.358
  O      -66.960     832.057    -502.718
  O      -68.404     833.990    -501.775
  H      -63.776     836.015    -496.945
  H      -69.184     833.635    -502.274
  H      -68.212     830.524    -498.873
  H      -67.391     832.818    -499.379
  H      -67.155     835.351    -496.816
  H      -64.705     833.906    -496.956
  H      -64.792     833.776    -499.369
  H      -65.744     836.680    -499.329
  H      -68.560     829.408    -495.340
  H      -67.067     835.800    -501.351
  H      -68.751     828.920    -496.999
  H      -65.327     836.075    -501.591
  P      -62.164     834.749    -498.645
  C      -61.446     833.261    -500.610
  O      -62.000     833.304    -499.311
  O      -62.023     834.790    -497.160
  O      -61.013     835.605    -499.347
  H      -60.331     835.820    -498.675
  H      -61.079     832.255    -500.812
  H      -60.604     833.964    -500.692
  H      -62.211     833.521    -501.354
  H      -65.831     835.470    -505.143
  H      -65.107     833.998    -504.538
  H      -65.162     835.424    -503.529

 3  4  5  6  7  8  9  10  11  12  13  23  27  28  29  30  32 0
 6-311+G(2d,p)
 ****
 34  35 0
 6-311+G(2d,p)
 ****
 1  2  14  15  16  17  18  19  20  21  22  24  25  26 0
 3-21G
 ****
 31  33  36  37  38  39  40  41  42  43  44  45  46 0
 3-21G
 ****


