%nproc=1
%NoSave
%Mem=1900MB
#P OB98/GEN NMR

erre ene a

0 1
  C     1247.974    -357.441    -631.134
  O     1248.170    -356.228    -630.410
  P     1248.851    -356.340    -628.960
  C     1250.703    -354.565    -629.449
  O     1249.535    -354.914    -628.686
  C     1251.121    -353.133    -629.146
  O     1250.405    -352.216    -629.990
  C     1250.810    -352.695    -627.724
  O     1251.764    -353.226    -626.823
  C     1250.884    -351.167    -627.864
  O     1252.243    -350.683    -627.712
  C     1250.368    -350.946    -629.291
  N     1249.024    -350.354    -629.324
  C     1248.815    -349.386    -630.321
  O     1249.739    -349.059    -631.075
  N     1247.577    -348.790    -630.387
  C     1246.656    -349.111    -629.565
  N     1245.430    -348.499    -629.665
  C     1246.842    -350.143    -628.492
  C     1248.048    -350.703    -628.419
  O     1250.096    -357.323    -629.214
  O     1247.940    -356.850    -627.887
  H     1252.483    -350.863    -626.773
  H     1250.334    -357.802    -628.398
  H     1246.033    -350.372    -627.816
  H     1248.286    -351.450    -627.701
  H     1251.038    -350.274    -629.842
  H     1250.270    -350.660    -627.105
  H     1249.816    -353.004    -627.436
  H     1252.203    -353.025    -629.358
  H     1245.343    -347.819    -630.408
  H     1250.447    -354.645    -630.520
  H     1244.649    -348.708    -629.074
  H     1251.511    -355.280    -629.217
  P     1251.537    -353.012    -625.255
  C     1252.659    -355.251    -624.701
  O     1252.683    -353.825    -624.540
  O     1250.228    -353.937    -624.986
  O     1251.318    -351.588    -624.806
  H     1249.907    -353.798    -624.065
  H     1253.574    -355.662    -624.268
  H     1252.587    -355.502    -625.747
  H     1251.801    -355.671    -624.127
  H     1247.515    -357.224    -632.076
  H     1247.341    -358.094    -630.571
  H     1248.919    -357.915    -631.298

 3  4  5  6  7  8  9  10  11  12  13  21  23  27  28  29  30  32 0
 6-311+G(2d,p)
 ****
 34  35 0
 6-311+G(2d,p)
 ****
 1  2  14  15  16  17  18  19  20  22  24  25  26 0
 3-21G
 ****
 31  33  36  37  38  39  40  41  42  43  44  45  46 0
 3-21G
 ****


