%nproc=1
%NoSave
%Mem=1900MB
#P OB98/GEN NMR

erre ene a

0 1
  C     -119.366      56.221     121.266
  O     -118.444      56.291     120.198
  H     -119.475      55.176     121.570
  H     -120.342      56.597     120.946
  H     -119.005      56.801     122.120
  P     -118.109      57.754     119.630
  C     -119.520      59.566     118.409
  O     -119.372      58.190     118.741
  C     -120.958      59.842     117.981
  O     -121.839      59.660     119.112
  C     -121.204      61.265     117.494
  O     -120.770      61.451     116.158
  C     -122.712      61.381     117.663
  O     -123.413      60.817     116.547
  C     -122.971      60.540     118.922
  N     -125.789      64.283     120.929
  C     -125.872      63.619     119.754
  N     -125.090      62.617     119.301
  C     -124.147      62.308     120.208
  C     -123.935      62.900     121.441
  C     -124.814      63.935     121.801
  N     -124.708      64.634     122.980
  N     -122.838      62.339     122.065
  C     -122.402      61.420     121.229
  N     -123.165      61.362     120.097
  O     -116.965      57.461     118.546
  O     -117.672      58.749     120.651
  H     -122.993      59.955     116.360
  H     -116.089      57.585     118.955
  H     -126.669      63.940     119.088
  H     -121.541      60.783     121.392
  H     -123.860      59.905     118.819
  H     -123.025      62.421     117.750
  H     -120.717      61.985     118.164
  H     -121.238      59.113     117.210
  H     -118.844      59.813     117.584
  H     -119.254      60.171     119.282
  H     -125.359      65.380     123.161
  H     -123.920      64.453     123.588
  P     -120.826      62.925     115.534
  C     -122.696      64.364     114.443
  O     -122.369      63.314     115.339
  O     -120.295      62.711     114.040
  O     -120.021      63.944     116.271
  H     -119.359      62.975     113.970
  H     -123.757      64.500     114.425
  H     -122.352      64.115     113.461
  H     -122.226      65.269     114.767

 6  7  8  9  10  11  12  13  14  15  25  28  32  33  34  35 0
 6-311+G(2d,p)
 ****
 36  37  40 0
 6-311+G(2d,p)
 ****
 1  2  3  4  5  16  17  18  19  20  21  22  23  24 0
 3-21G
 ****
 26  27  29  30  31  38  39 41  42  43  44  45  46  47  48 0
 3-21G
 ****


