%nproc=1
%NoSave
%Mem=1900MB
#P OB98/GEN NMR

erre ene a

0 1
  C     1051.944    1601.559    -742.431
  O     1052.572    1600.819    -743.452
  H     1052.683    1602.238    -741.990
  H     1051.582    1600.883    -741.653
  H     1051.113    1602.143    -742.828
  P     1051.653    1599.765    -744.256
  C     1051.834    1600.798    -746.647
  O     1051.029    1600.597    -745.481
  C     1050.935    1601.168    -747.835
  O     1050.306    1599.984    -748.357
  C     1049.827    1602.196    -747.463
  O     1049.741    1603.175    -748.510
  C     1048.574    1601.339    -747.429
  O     1047.400    1602.097    -747.695
  C     1048.900    1600.227    -748.449
  N     1048.145    1599.000    -748.167
  C     1047.234    1598.582    -749.182
  O     1047.099    1599.243    -750.218
  N     1046.474    1597.459    -748.954
  C     1046.569    1596.838    -747.828
  N     1045.771    1595.750    -747.662
  C     1047.473    1597.272    -746.746
  C     1048.221    1598.333    -746.972
  O     1050.422    1599.528    -743.285
  O     1052.352    1598.502    -744.670
  H     1047.519    1602.508    -748.573
  H     1049.882    1598.752    -743.547
  H     1047.501    1596.717    -745.789
  H     1048.899    1598.743    -746.244
  H     1048.655    1600.570    -749.468
  H     1048.470    1600.899    -746.413
  H     1049.999    1602.676    -746.530
  H     1051.583    1601.561    -748.640
  H     1045.167    1595.482    -748.438
  H     1052.367    1599.863    -746.867
  H     1045.737    1595.194    -746.799
  H     1052.553    1601.594    -746.453
  P     1049.980    1604.690    -748.043
  C     1051.992    1604.965    -749.695
  O     1051.534    1605.042    -748.346
  O     1049.925    1604.594    -746.453
  O     1049.014    1605.638    -748.603
  H     1049.057    1604.876    -746.134
  H     1053.030    1605.223    -749.735
  H     1051.432    1605.646    -750.301
  H     1051.858    1603.968    -750.061

 6  7  8  9  10  11  12  13  14  15  16  26  30  31  32  33  35 0
 6-311+G(2d,p)
 ****
 37  38 0
 6-311+G(2d,p)
 ****
 1  2  3  4  5  17  18  19  20  21  22  23  24  25 0
 3-21G
 ****
 27  28  29  34  36  39  40  41  42  43  44  45  46 0
 3-21G
 ****


