%nproc=1
%NoSave
%Mem=1900MB
#P OB98/GEN NMR

erre ene a

0 1
  C     -902.794     761.452     435.526
  O     -902.065     762.617     435.159
  H     -903.839     761.595     435.248
  H     -902.734     761.279     436.605
  H     -902.401     760.584     434.992
  P     -900.565     762.773     435.720
  C     -899.451     762.096     433.488
  O     -899.672     761.739     434.851
  C     -898.215     762.989     433.346
  O     -897.024     762.290     433.782
  C     -897.919     763.401     431.902
  O     -898.868     764.265     431.325
  C     -896.464     763.849     432.013
  O     -896.348     765.193     432.485
  C     -895.905     762.858     433.080
  N     -895.049     761.836     432.477
  C     -893.736     762.201     432.245
  O     -893.284     763.333     432.473
  N     -892.943     761.238     431.680
  C     -893.344     759.998     431.305
  O     -892.581     759.174     430.796
  C     -894.752     759.669     431.550
  C     -895.544     760.589     432.129
  O     -900.400     762.621     437.203
  O     -900.102     764.198     435.162
  H     -895.428     765.318     432.780
  H     -899.288     764.519     435.638
  H     -891.983     761.486     431.512
  H     -895.117     758.688     431.260
  H     -896.588     760.386     432.311
  H     -895.317     763.404     433.827
  H     -895.946     763.799     431.044
  H     -897.900     762.486     431.284
  H     -898.349     763.857     433.984
  H     -900.332     762.636     433.127
  H     -899.327     761.179     432.898
  P     -898.951     764.548     429.768
  C     -901.289     763.365     429.745
  O     -900.023     763.556     429.105
  O     -897.658     764.748     429.050
  O     -899.752     765.961     429.741
  H     -899.400     766.469     428.993
  H     -901.877     762.678     429.174
  H     -901.800     764.303     429.811
  H     -901.136     762.972     430.728

 6  7  8  9  10  11  12  13  14  15  16  26  31  32  33  34  35 0
 6-311+G(2d,p)
 ****
 36  37 0
 6-311+G(2d,p)
 ****
 1  2  3  4  5  17  18  19  20  21  22  23  24  25 0
 3-21G
 ****
 27  28  29  30  38  39  40  41  42  43  44  45 0
 3-21G
 ****


