%nproc=1
%NoSave
%Mem=1900MB
#P OB98/GEN NMR

erre ene a

0 1
  C     -947.722      57.213     -51.734
  O     -947.687      57.558     -50.364
  H     -946.695      57.104     -52.093
  H     -948.217      58.000     -52.313
  H     -948.248      56.264     -51.868
  P     -949.104      57.806     -49.651
  C     -948.279      59.841     -48.302
  O     -948.730      58.495     -48.248
  C     -947.852      60.320     -46.916
  O     -948.958      60.142     -45.999
  C     -946.651      59.550     -46.347
  O     -945.810      60.453     -45.632
  C     -947.286      58.570     -45.375
  O     -946.389      58.164     -44.345
  C     -948.500      59.364     -44.881
  N     -950.818      57.558     -40.711
  C     -949.886      58.520     -40.882
  N     -949.332      58.948     -42.032
  C     -949.875      58.309     -43.092
  C     -950.826      57.307     -43.073
  C     -951.299      56.926     -41.805
  N     -952.229      55.928     -41.620
  N     -951.090      56.871     -44.354
  C     -950.318      57.605     -45.136
  N     -949.554      58.479     -44.413
  O     -950.000      56.614     -49.560
  O     -949.685      59.035     -50.492
  H     -946.255      58.925     -43.740
  H     -949.000      59.712     -50.653
  H     -949.530      59.000     -39.966
  H     -950.271      57.537     -46.217
  H     -948.247      60.039     -44.058
  H     -947.606      57.673     -45.919
  H     -946.080      59.043     -47.124
  H     -947.638      61.396     -46.963
  H     -949.074      60.490     -48.684
  H     -952.530      55.721     -40.678
  H     -952.618      55.450     -42.430
  H     -947.431      59.888     -48.997
  P     -944.574      61.105     -46.406
  C     -942.772      60.607     -44.609
  O     -943.495      61.614     -45.321
  O     -944.899      62.084     -47.480
  O     -943.826      59.814     -47.027
  H     -943.481      60.048     -47.905
  H     -942.093      61.072     -43.925
  H     -942.223      60.005     -45.302
  H     -943.459      59.991     -44.067

 6  7  8  9  10  11  12  13  14  15  25  28  32  33  34  35 0
 6-311+G(2d,p)
 ****
 36  39  40 0
 6-311+G(2d,p)
 ****
 1  2  3  4  5  16  17  18  19  20  21  22  23  24 0
 3-21G
 ****
 26  27  29  30  31  37  38  41  42  43  44  45  46  47 0
 3-21G
 ****
 48 0
 3-21G
 ****


