%nproc=1
%NoSave
%Mem=1900MB
#P OB98/GEN NMR

erre ene a

0 1
  C     -342.095     296.222    -101.623
  O     -343.136     296.895    -100.948
  H     -342.390     296.067    -102.669
  H     -341.903     295.247    -101.162
  H     -341.179     296.823    -101.604
  P     -342.929     297.121     -99.369
  C     -343.644     295.598     -97.376
  O     -343.257     295.681     -98.736
  C     -344.634     294.448     -97.187
  O     -345.952     294.832     -97.647
  C     -344.280     293.189     -97.974
  O     -343.266     292.413     -97.358
  C     -345.621     292.472     -97.953
  O     -345.837     291.882     -96.658
  C     -346.591     293.653     -98.193
  N     -346.916     293.851     -99.612
  C     -347.939     293.067    -100.150
  O     -348.526     292.238     -99.447
  N     -348.259     293.206    -101.485
  C     -347.620     294.066    -102.220
  N     -347.965     294.150    -103.527
  C     -346.542     294.927    -101.694
  C     -346.251     294.774    -100.408
  O     -344.214     297.983     -98.943
  O     -341.626     297.724     -98.968
  H     -346.762     291.561     -96.646
  H     -344.249     298.074     -97.959
  H     -346.030     295.630    -102.341
  H     -345.460     295.372     -99.943
  H     -347.533     293.501     -97.653
  H     -345.690     291.666     -98.691
  H     -344.025     293.421     -99.014
  H     -344.715     294.241     -96.109
  H     -348.664     293.511    -103.882
  H     -344.116     296.542     -97.090
  H     -347.408     294.651    -104.210
  H     -342.771     295.428     -96.742
  P     -342.132     291.787     -98.302
  C     -341.258     289.360     -98.683
  O     -342.347     290.195     -98.295
  O     -340.797     291.958     -97.428
  O     -342.004     292.422     -99.653
  H     -340.040     292.208     -97.996
  H     -341.557     288.334     -98.626
  H     -340.429     289.527     -98.027
  H     -340.970     289.593     -99.687

 6  7  8  9  10  11  12  13  14  15  16  26  30  31  32  33  35 0
 6-311+G(2d,p)
 ****
 37  38 0
 6-311+G(2d,p)
 ****
 1  2  3  4  5  17  18  19  20  21  22  23  24  25 0
 3-21G
 ****
 27  28  29  34  36  39  40  41  42  43  44  45  46 0
 3-21G
 ****


