%nproc=1
%NoSave
%Mem=1900MB
#P OB98/GEN NMR

erre ene a

0 1
  C      129.195     410.493     -41.356
  O      128.953     409.920     -40.095
  P      129.428     408.423     -39.767
  C      127.295     407.288     -40.660
  O      128.685     407.474     -40.841
  C      126.721     406.457     -41.804
  O      126.916     407.122     -43.080
  C      127.391     405.103     -41.984
  O      127.224     404.152     -40.952
  C      126.904     404.711     -43.368
  O      125.588     404.164     -43.324
  C      126.909     406.080     -44.093
  N      128.033     406.213     -45.019
  C      127.801     406.990     -46.152
  O      126.731     407.548     -46.385
  N      128.846     407.079     -47.034
  C      130.052     406.451     -46.920
  O      130.931     406.539     -47.775
  C      130.229     405.629     -45.715
  C      129.231     405.546     -44.828
  O      129.268     407.995     -38.355
  O      130.945     408.399     -40.290
  H      125.022     404.813     -42.851
  H      131.059     408.595     -41.238
  H      128.693     407.627     -47.864
  H      131.180     405.127     -45.586
  H      129.341     404.944     -43.933
  H      125.979     406.204     -44.665
  H      127.556     403.954     -43.828
  H      128.479     405.266     -42.048
  H      125.644     406.362     -41.655
  H      126.805     408.269     -40.655
  H      127.105     406.814     -39.689
  P      128.369     403.124     -40.502
  C      127.523     401.243     -42.080
  O      128.602     402.071     -41.693
  O      128.277     402.580     -39.119
  O      129.687     404.043     -40.612
  H      130.333     403.745     -39.945
  H      127.868     400.575     -42.866
  H      126.698     401.850     -42.476
  H      127.174     400.650     -41.236
  H      128.805     411.489     -41.376
  H      128.715     409.907     -42.112
  H      130.249     410.519     -41.540

 3  4  5  6  7  8  9  10  11  12  13  23  28  29  30  31  32 0
 6-311+G(2d,p)
 ****
 33  34 0
 6-311+G(2d,p)
 ****
 1  2  14  15  16  17  18  19  20  21  22  24  25  26  27 0
 3-21G
 ****
 35  36  37  38  39  40  41  42  43  44  45 0
 3-21G
 ****


