%nproc=1
%NoSave
%Mem=1900MB
#P OB98/GEN NMR

erre ene a

0 1
  C     -214.269     -95.590      20.758
  O     -214.250     -96.806      21.475
  H     -215.112     -95.610      20.060
  H     -213.346     -95.474      20.185
  H     -214.397     -94.740      21.433
  P     -213.213     -96.971      22.685
  C     -214.936     -96.000      24.337
  O     -213.622     -95.896      23.801
  C     -214.876     -95.982      25.862
  O     -214.147     -97.133      26.342
  C     -214.147     -94.773      26.436
  O     -214.943     -93.607      26.369
  C     -213.840     -95.265      27.839
  O     -214.972     -95.107      28.704
  C     -213.543     -96.762      27.600
  N     -212.107     -97.042      27.600
  C     -211.639     -97.856      28.626
  O     -212.363     -98.338      29.495
  N     -210.283     -98.052      28.660
  C     -209.370     -97.414      27.874
  O     -208.164     -97.427      28.099
  C     -209.924     -96.617      26.769
  C     -211.247     -96.459      26.691
  O     -211.770     -96.973      22.302
  O     -213.639     -98.361      23.357
  H     -213.016     -99.058      23.075
  H     -215.116     -94.141      28.782
  H     -209.933     -98.607      29.429
  H     -209.229     -96.152      26.080
  H     -211.678     -95.847      25.905
  H     -214.018     -97.376      28.375
  H     -213.006     -94.719      28.282
  H     -213.205     -94.620      25.899
  H     -215.901     -96.041      26.249
  H     -215.378     -96.943      24.000
  H     -215.540     -95.167      23.962
  P     -214.254     -92.162      26.311
  C     -214.478     -92.364      23.759
  O     -213.649     -91.951      24.841
  O     -213.309     -91.861      27.425
  O     -215.492     -91.143      26.332
  H     -215.331     -90.467      27.020
  H     -213.975     -92.177      22.833
  H     -215.396     -91.815      23.784
  H     -214.685     -93.410      23.847

 6  7  8  9  10  11  12  13  14  15  16  27  31  32  33  34  35 0
 6-311+G(2d,p)
 ****
 36  37 0
 6-311+G(2d,p)
 ****
 1  2  3  4  5  17  18  19  20  21  22  23  24  25 0
 3-21G
 ****
 26  28  29  30  38  39  40  41  42  43  44  45 0
 3-21G
 ****


