%nproc=1
%NoSave
%Mem=1900MB
#P OB98/GEN NMR

erre ene a

0 1
  C      -14.216     330.224     -27.636
  O      -14.216     330.841     -28.916
  P      -15.600     330.887     -29.718
  C      -17.050     329.158     -31.031
  O      -15.850     329.422     -30.325
  C      -16.777     328.159     -32.159
  O      -15.993     328.779     -33.197
  C      -15.990     326.938     -31.712
  O      -16.815     326.001     -31.048
  C      -15.436     326.427     -33.039
  O      -16.408     325.616     -33.724
  C      -15.187     327.741     -33.807
  N      -13.772     328.106     -33.846
  C      -12.930     327.219     -34.512
  O      -13.337     326.170     -35.027
  N      -11.608     327.550     -34.542
  C      -11.035     328.636     -33.929
  O       -9.828     328.852     -33.940
  C      -11.972     329.521     -33.211
  C      -13.267     329.224     -33.197
  O      -15.267     331.780     -31.004
  O      -16.752     331.432     -28.943
  H      -16.531     324.813     -33.181
  H      -16.048     332.319     -31.244
  H      -10.983     326.936     -35.039
  H      -11.552     330.392     -32.719
  H      -13.970     329.853     -32.671
  H      -15.547     327.650     -34.843
  H      -14.542     325.811     -32.904
  H      -15.147     327.247     -31.072
  H      -17.744     327.854     -32.594
  H      -17.435     330.093     -31.447
  H      -17.794     328.757     -30.334
  P      -16.210     325.311     -29.718
  C      -14.243     323.636     -29.319
  O      -14.992     324.415     -30.237
  O      -17.379     324.273     -29.370
  O      -15.902     326.297     -28.641
  H      -17.825     323.935     -30.165
  H      -14.881     323.239     -28.523
  H      -13.449     324.248     -28.886
  H      -13.789     322.803     -29.858
  H      -13.231     330.266     -27.220
  H      -14.519     329.202     -27.732
  H      -14.898     330.739     -26.992

 3  4  5  6  7  8  9  10  11  12  13  23  28  29  30  31  32 0
 6-311+G(2d,p)
 ****
 33  34 0
 6-311+G(2d,p)
 ****
 1  2  14  15  16  17  18  19  20  21  22  24  25  26 0
 3-21G
 ****
 27  35  36  37  38  39  40  41  42  43  44  45 0
 3-21G
 ****


