%nproc=1
%NoSave
%Mem=1900MB
#P OB98/GEN NMR

erre ene a

0 1
  C      -22.566     200.963    -348.055
  O      -22.528     202.375    -348.048
  P      -23.291     203.239    -349.164
  C      -25.772     203.282    -348.490
  O      -24.772     202.623    -349.251
  C      -26.963     203.678    -349.360
  O      -26.519     204.550    -350.434
  C      -27.710     202.499    -350.002
  O      -29.087     202.872    -350.061
  C      -27.106     202.451    -351.393
  O      -27.917     201.739    -352.318
  C      -26.932     203.948    -351.680
  N      -25.979     204.192    -352.755
  C      -26.374     203.831    -354.045
  O      -27.451     203.257    -354.222
  N      -25.520     204.065    -355.093
  C      -24.333     204.530    -354.858
  N      -23.533     204.752    -355.932
  C      -23.827     204.807    -353.499
  C      -24.698     204.634    -352.505
  O      -22.583     203.358    -350.467
  O      -23.543     204.644    -348.441
  H      -28.811     202.143    -352.322
  H      -22.712     205.179    -348.428
  H      -22.814     205.141    -353.347
  H      -24.422     204.812    -351.479
  H      -27.892     204.402    -351.958
  H      -26.130     201.955    -351.355
  H      -27.588     201.556    -349.460
  H      -27.661     204.260    -348.740
  H      -23.924     204.563    -356.847
  H      -25.335     204.188    -348.064
  H      -22.626     205.187    -355.867
  H      -26.092     202.642    -347.659
  P      -30.257     201.786    -349.884
  C      -30.616     201.757    -347.354
  O      -30.038     201.096    -348.462
  O      -30.415     200.839    -351.028
  O      -31.578     202.665    -349.662
  H      -32.365     202.106    -349.801
  H      -30.651     201.069    -346.504
  H      -31.635     202.089    -347.583
  H      -30.006     202.625    -347.082
  H      -21.996     200.587    -347.231
  H      -22.150     200.600    -348.971
  H      -23.580     200.633    -347.968

 3  4  5  6  7  8  9  10  11  12  13  23  27  28  29  30  32 0
 6-311+G(2d,p)
 ****
 34  35 0
 6-311+G(2d,p)
 ****
 1  2  14  15  16  17  18  19  20  21  22  24  25  26 0
 3-21G
 ****
 31  33  36  37  38  39  40  41  42  43  44  45  46 0
 3-21G
 ****


