%nproc=1
%NoSave
%Mem=1900MB
#P OB98/GEN NMR

erre ene a

0 1
  C      -36.597     -24.986      23.358
  O      -37.679     -24.283      23.946
  P      -37.794     -22.709      23.655
  C      -39.718     -20.948      24.000
  O      -39.286     -22.298      24.068
  C      -41.181     -20.839      24.436
  O      -42.017     -21.609      23.547
  C      -41.468     -21.378      25.831
  O      -41.053     -20.474      26.843
  C      -42.974     -21.602      25.757
  O      -43.673     -20.361      25.955
  C      -43.150     -22.085      24.303
  N      -43.290     -23.535      24.192
  C      -44.531     -24.062      24.539
  O      -45.473     -23.370      24.920
  N      -44.646     -25.424      24.450
  C      -43.649     -26.295      24.120
  O      -43.794     -27.510      24.099
  C      -42.352     -25.682      23.796
  C      -42.234     -24.354      23.845
  O      -37.796     -22.706      22.056
  O      -36.703     -21.915      24.289
  H      -38.149     -23.537      21.693
  H      -43.386     -20.017      26.823
  H      -45.542     -25.828      24.675
  H      -41.534     -26.342      23.537
  H      -41.284     -23.886      23.618
  H      -44.034     -21.618      23.854
  H      -43.334     -22.305      26.515
  H      -40.961     -22.341      25.970
  H      -41.483     -19.786      24.361
  H      -39.614     -20.592      22.972
  H      -39.079     -20.338      24.648
  P      -41.131     -21.007      28.359
  C      -39.839     -20.406      30.550
  O      -39.944     -20.278      29.150
  O      -40.623     -22.515      28.185
  O      -42.486     -20.877      28.971
  H      -39.865     -22.591      27.582
  H      -38.816     -20.161      30.849
  H      -40.068     -21.424      30.877
  H      -40.524     -19.706      31.034
  H      -36.648     -26.018      23.637
  H      -35.673     -24.569      23.700
  H      -36.653     -24.901      22.293

 3  4  5  6  7  8  9  10  11  12  13  24  28  29  30  31  32 0
 6-311+G(2d,p)
 ****
 33  34 0
 6-311+G(2d,p)
 ****
 1  2  14  15  16  17  18  19  20  21  22  23  25  26  27 0
 3-21G
 ****
 35  36  37  38  39  40  41  42  43  44  45 0
 3-21G
 ****


