%nproc=1
%NoSave
%Mem=1900MB
#P OB98/GEN NMR

erre ene a

0 1
  C     -155.669    -334.586     168.433
  O     -156.715    -334.506     169.402
  P     -158.014    -333.585     169.276
  C     -158.499    -331.012     169.008
  O     -157.548    -332.059     169.166
  C     -157.869    -329.643     169.321
  O     -157.422    -329.647     170.716
  C     -156.643    -329.346     168.451
  O     -156.594    -327.999     167.983
  C     -155.488    -329.822     169.320
  O     -154.235    -329.266     168.944
  C     -155.985    -329.480     170.725
  N     -151.681    -331.374     172.720
  C     -151.870    -330.679     171.542
  N     -150.772    -330.477     170.776
  N     -153.031    -330.246     171.131
  C     -154.056    -330.585     171.945
  C     -153.995    -331.279     173.136
  C     -152.699    -331.717     173.602
  O     -152.476    -332.315     174.649
  N     -155.246    -331.426     173.689
  C     -156.058    -330.840     172.831
  N     -155.379    -330.303     171.754
  O     -159.120    -333.883     170.233
  O     -158.560    -333.901     167.788
  H     -154.334    -328.292     168.926
  H     -159.533    -333.808     167.830
  H     -150.759    -331.668     172.997
  H     -157.129    -330.754     172.938
  H     -155.762    -328.445     170.997
  H     -155.407    -330.910     169.194
  H     -149.869    -330.893     170.970
  H     -156.667    -329.938     167.527
  H     -150.948    -330.167     169.819
  H     -158.641    -328.872     169.214
  H     -159.304    -331.225     169.720
  H     -158.927    -331.031     168.006
  P     -156.647    -327.462     166.477
  C     -155.027    -327.062     164.533
  O     -155.193    -327.608     165.826
  O     -156.824    -325.876     166.612
  O     -157.759    -328.045     165.651
  H     -157.673    -325.603     166.199
  H     -154.095    -327.453     164.099
  H     -154.951    -325.977     164.601
  H     -155.858    -327.334     163.880
  H     -154.924    -335.277     168.769
  H     -155.227    -333.620     168.304
  H     -156.072    -334.921     167.500

 3  4  5  6  7  8  9  10  11  12  23  26  30  31 0
 6-311+G(2d,p)
 ****
 33  35  36  37  38 0
 6-311+G(2d,p)
 ****
 1  2  13  14  15  16  17  18  19  20  21  22  24  25 0
 3-21G
 ****
 27  28  29  32  34  39  40  41  42  43  44  45  46  47  48  49 0
 3-21G
 ****


