%nproc=1
%NoSave
%Mem=1900MB
#P OB98/GEN NMR

erre ene a

0 1
  C     -138.095     103.697     418.622
  O     -137.313     104.854     418.401
  H     -137.956     103.371     419.655
  H     -137.780     102.891     417.950
  H     -139.153     103.925     418.462
  P     -137.334     105.465     416.917
  C     -135.497     105.767     415.131
  O     -135.903     105.065     416.299
  C     -133.971     105.758     415.012
  O     -133.419     106.552     416.091
  C     -133.356     104.356     415.104
  O     -132.226     104.289     414.229
  C     -132.883     104.285     416.548
  O     -131.846     103.324     416.727
  C     -132.462     105.732     416.793
  N     -129.525     105.871     420.955
  C     -129.239     105.680     419.646
  N     -130.085     105.691     418.596
  C     -131.340     105.970     419.000
  C     -131.787     106.182     420.292
  C     -130.816     106.114     421.305
  N     -131.102     106.266     422.641
  N     -133.154     106.396     420.299
  C     -133.521     106.320     419.035
  N     -132.462     106.045     418.213
  O     -137.685     106.909     416.817
  O     -138.328     104.464     416.161
  H     -131.772     103.122     417.684
  H     -138.118     103.531     416.362
  H     -128.191     105.499     419.416
  H     -134.538     106.439     418.663
  H     -131.465     105.957     416.406
  H     -133.715     104.003     417.197
  H     -134.063     103.563     414.863
  H     -133.691     106.257     414.074
  H     -135.856     106.805     415.172
  H     -130.344     106.205     423.302
  H     -132.054     106.455     422.924
  H     -135.952     105.276     414.262
  P     -132.264     103.273     412.991
  C     -132.158     100.725     412.589
  O     -132.027     101.777     413.536
  O     -131.424     103.655     411.816
  O     -133.821     103.253     412.599
  H     -133.904     103.266     411.624
  H     -131.978      99.787     413.071
  H     -131.447     100.864     411.801
  H     -133.147     100.733     412.182

 6  7  8  9  10  11  12  13  14  15  25  28  32  33  34  35 0
 6-311+G(2d,p)
 ****
 36  39  40 0
 6-311+G(2d,p)
 ****
 1  2  3  4  5  16  17  18  19  20  21  22  23  24 0
 3-21G
 ****
 26  27  29  30  31  37  38  41  42  43  44  45  46  47 0
 3-21G
 ****
 48 0
 3-21G
 ****


