%nproc=1
%NoSave
%Mem=1900MB
#P OB98/GEN NMR

erre ene a

0 1
  C     -233.233     266.408     -74.444
  O     -232.867     265.991     -75.748
  P     -232.043     264.631     -75.916
  C     -229.787     265.896     -76.226
  O     -230.521     264.933     -75.489
  C     -228.414     265.348     -76.613
  O     -227.639     265.087     -75.395
  C     -228.466     264.034     -77.410
  O     -227.360     264.042     -78.325
  C     -228.231     262.985     -76.332
  O     -227.790     261.739     -76.855
  C     -227.191     263.719     -75.471
  N     -227.040     263.126     -74.139
  C     -226.019     262.196     -73.972
  O     -225.252     261.846     -74.859
  N     -225.944     261.615     -72.723
  C     -226.827     261.806     -71.692
  O     -226.770     261.162     -70.648
  C     -227.883     262.800     -71.932
  C     -227.943     263.409     -73.123
  O     -231.960     264.439     -77.508
  O     -232.649     263.446     -75.243
  H     -226.949     261.904     -77.322
  H     -232.629     263.790     -77.801
  H     -225.206     260.948     -72.574
  H     -228.587     262.981     -71.131
  H     -228.726     264.126     -73.342
  H     -226.215     263.732     -75.978
  H     -229.154     262.817     -75.777
  H     -229.404     263.884     -77.943
  H     -227.872     266.114     -77.177
  H     -229.663     266.792     -75.613
  H     -230.348     266.184     -77.122
  P     -227.667     263.723     -79.874
  C     -226.793     261.260     -79.750
  O     -227.874     262.135     -79.980
  O     -226.215     263.967     -80.516
  O     -228.739     264.581     -80.464
  H     -225.499     263.591     -79.983
  H     -226.123     261.644     -78.978
  H     -226.234     261.118     -80.674
  H     -227.187     260.298     -79.419
  H     -233.775     267.329     -74.503
  H     -232.351     266.550     -73.854
  H     -233.849     265.660     -73.990

 3  4  5  6  7  8  9  10  11  12  13  23  28  29  30  31  32 0
 6-311+G(2d,p)
 ****
 33  34 0
 6-311+G(2d,p)
 ****
 1  2  14  15  16  17  18  19  20  21  22  24  25  26 0
 3-21G
 ****
 27  35  36  37  38  39  40  41  42  43  44  45 0
 3-21G
 ****


