%nproc=1
%NoSave
%Mem=1900MB
#P OB98/GEN NMR

erre ene a

0 1
  C     -206.845    -164.470     -91.191
  O     -207.717    -164.096     -90.120
  P     -207.096    -164.168     -88.640
  C     -207.714    -166.660     -88.241
  O     -206.681    -165.691     -88.354
  C     -207.168    -168.070     -88.490
  O     -206.334    -168.531     -87.413
  C     -208.262    -169.118     -88.656
  O     -208.798    -169.059     -89.963
  C     -207.498    -170.405     -88.376
  O     -206.814    -170.878     -89.556
  C     -206.484    -169.972     -87.305
  N     -207.590    -173.767     -84.127
  C     -207.418    -173.780     -85.500
  N     -207.536    -174.980     -86.107
  N     -207.160    -172.714     -86.211
  C     -207.063    -171.585     -85.469
  C     -207.185    -171.449     -84.104
  C     -207.477    -172.633     -83.330
  O     -207.615    -172.678     -82.113
  N     -206.966    -170.152     -83.708
  C     -206.842    -169.488     -84.845
  N     -206.827    -170.321     -85.940
  O     -208.367    -163.929     -87.696
  O     -206.028    -163.156     -88.394
  H     -206.139    -170.223     -89.816
  H     -208.299    -163.054     -87.267
  H     -207.796    -174.615     -83.632
  H     -206.733    -168.418     -84.927
  H     -205.495    -170.410     -87.491
  H     -208.162    -171.216     -88.064
  H     -207.736    -175.841     -85.625
  H     -209.042    -168.971     -87.897
  H     -207.408    -175.015     -87.112
  H     -206.557    -168.027     -89.402
  H     -208.510    -166.439     -88.954
  H     -208.158    -166.585     -87.241
  P     -210.327    -168.600     -90.130
  C     -211.444    -170.857     -89.487
  O     -211.211    -169.503     -89.144
  O     -210.709    -169.133     -91.592
  O     -210.543    -167.128     -90.016
  H     -211.208    -168.440     -92.069
  H     -211.564    -171.436     -88.568
  H     -210.617    -171.279     -90.066
  H     -212.367    -170.922     -90.073
  H     -207.366    -164.383     -92.122
  H     -206.526    -165.482     -91.054
  H     -205.991    -163.825     -91.198

 3  4  5  6  7  8  9  10  11  12  23  26  30  31 0
 6-311+G(2d,p)
 ****
 33  35  36  37  38 0
 6-311+G(2d,p)
 ****
 1  2  13  14  15  16  17  18  19  20  21  22  24  25 0
 3-21G
 ****
 27  28  29  32  34  39  40  41  42  43  44  45  46  47  48  49 0
 3-21G
 ****


