%nproc=1
%NoSave
%Mem=1900MB
#P OB98/GEN NMR

erre ene a

0 1
  C        6.900     -33.049      -4.527
  O        5.909     -33.820      -3.884
  H        6.733     -33.098      -5.606
  H        7.888     -33.461      -4.305
  H        6.860     -32.003      -4.213
  P        5.638     -33.579      -2.326
  C        7.057     -33.669      -0.173
  O        6.922     -34.107      -1.518
  C        8.511     -33.713       0.299
  O        9.363     -33.033      -0.649
  C        8.710     -32.998       1.635
  O        8.427     -33.773       2.785
  C       10.189     -32.630       1.574
  O       11.008     -33.720       2.030
  C       10.414     -32.378       0.082
  N       12.999     -27.976       0.259
  C       13.325     -29.197       0.814
  N       14.451     -29.233       1.559
  N       12.598     -30.273       0.665
  C       11.452     -30.063      -0.024
  C       11.016     -28.895      -0.609
  C       11.856     -27.722      -0.484
  O       11.610     -26.614      -0.951
  N        9.802     -29.066      -1.230
  C        9.471     -30.312      -0.955
  N       10.452     -30.965      -0.248
  O        4.527     -34.677      -1.963
  O        5.174     -32.202      -1.961
  H       10.818     -34.499       1.476
  H        3.999     -34.376      -1.202
  H       13.610     -27.188       0.383
  H        8.551     -30.795      -1.265
  H       11.361     -32.814      -0.261
  H       10.420     -31.774       2.214
  H       14.978     -28.407       1.797
  H        8.127     -32.072       1.663
  H       14.580     -30.025       2.192
  H        8.844     -34.756       0.344
  H        6.446     -34.337       0.438
  H        6.648     -32.661      -0.059
  P        8.689     -33.168       4.244
  C       10.802     -32.613       5.657
  O       10.275     -33.163       4.470
  O        8.169     -34.333       5.209
  O        8.006     -31.873       4.519
  H        7.255     -34.151       5.495
  H       11.869     -32.691       5.643
  H       10.416     -33.147       6.500
  H       10.521     -31.583       5.728

 6  7  8  9  10  11  12  13  14  15  26  29  33  34 0
 6-311+G(2d,p)
 ****
 36  38  39  40  41 0
 6-311+G(2d,p)
 ****
 1  2  3  4  5  16  17  18  19  20  21  22  23  24  25 0
 3-21G
 ****
 27  28  30  31  32  35  37  42  43  44  45  46  47 0
 3-21G
 ****
 48  49 0
 3-21G
 ****


