%nproc=1
%NoSave
%Mem=1900MB
#P OB98/GEN NMR

erre ene a

0 1
  C     -254.644     573.246     162.896
  O     -254.613     572.966     161.501
  P     -253.798     571.677     161.011
  C     -255.856     571.274     159.496
  O     -254.448     571.259     159.608
  C     -256.305     572.030     158.250
  O     -255.715     571.442     157.070
  C     -257.800     572.042     158.006
  O     -258.471     573.025     158.766
  C     -257.851     572.404     156.520
  O     -257.658     573.814     156.357
  C     -256.644     571.634     155.976
  N     -256.066     568.551     151.932
  C     -255.637     569.807     152.167
  N     -255.843     570.568     153.262
  C     -256.606     569.915     154.166
  C     -257.137     568.639     154.036
  C     -256.832     567.937     152.872
  N     -257.245     566.641     152.643
  N     -257.854     568.320     155.171
  C     -257.759     569.365     155.960
  N     -256.999     570.353     155.397
  O     -254.299     570.532     162.015
  O     -252.309     571.827     161.036
  H     -257.637     573.990     155.395
  H     -253.631     569.815     162.065
  H     -255.057     570.265     151.378
  H     -258.211     569.439     156.945
  H     -256.106     572.209     155.196
  H     -258.803     572.154     156.051
  H     -258.235     571.036     158.150
  H     -255.920     573.073     158.334
  H     -256.292     571.745     160.387
  H     -256.837     566.144     151.861
  H     -257.645     566.119     153.415
  H     -256.225     570.229     159.455
  P     -260.075     572.880     158.884
  C     -260.036     574.703     160.754
  O     -260.569     574.270     159.517
  O     -260.251     571.832     160.081
  O     -260.740     572.443     157.634
  H     -261.106     571.365     159.999
  H     -260.227     575.765     160.877
  H     -258.962     574.534     160.796
  H     -260.533     574.154     161.579
  H     -255.221     574.130     163.070
  H     -253.646     573.396     163.252
  H     -255.088     572.422     163.415

 3  4  5  6  7  8  9  10  11  12  22  25  29  30  31  32 0
 6-311+G(2d,p)
 ****
 33  36  37 0
 6-311+G(2d,p)
 ****
 1  2  13  14  15  16  17  18  19  20  21  23  24  26 0
 3-21G
 ****
 27  28  34  35  38  39  40  41  42  43  44  45  46  47  48 0
 3-21G
 ****


