%nproc=1
%NoSave
%Mem=1900MB
#P OB98/GEN NMR

erre ene a

0 1
  C       59.176     401.967    -305.457
  O       58.085     402.748    -305.921
  P       57.252     403.604    -304.850
  C       55.289     401.897    -304.852
  O       55.699     403.238    -305.046
  C       53.913     401.658    -305.488
  O       52.903     402.420    -304.761
  C       53.831     402.078    -306.963
  O       52.931     401.175    -307.622
  C       53.190     403.450    -306.874
  O       52.609     403.879    -308.095
  C       52.196     403.217    -305.727
  N       51.695     404.464    -305.147
  C       50.983     405.314    -305.982
  O       50.752     405.080    -307.171
  N       50.579     406.498    -305.417
  C       50.890     406.941    -304.171
  O       50.601     408.065    -303.765
  C       51.646     405.998    -303.323
  C       52.009     404.825    -303.846
  O       57.364     405.098    -305.406
  O       57.743     403.490    -303.444
  H       52.292     404.787    -307.965
  H       58.050     405.598    -304.918
  H       50.051     407.134    -306.005
  H       51.895     406.312    -302.320
  H       52.585     404.118    -303.261
  H       51.351     402.613    -306.086
  H       53.955     404.192    -306.596
  H       54.799     402.090    -307.472
  H       53.658     400.594    -305.382
  H       55.223     401.692    -303.780
  H       56.036     401.213    -305.275
  P       53.549     400.138    -308.687
  C       52.256     400.831    -310.862
  O       52.421     399.909    -309.807
  O       53.527     398.784    -307.831
  O       54.909     400.516    -309.180
  H       52.699     398.665    -307.326
  H       53.218     401.267    -311.163
  H       51.582     401.627    -310.538
  H       51.823     400.322    -311.716
  H       59.627     401.458    -306.283
  H       58.824     401.249    -304.746
  H       59.899     402.605    -304.993

 3  4  5  6  7  8  9  10  11  12  13  23  28  29  30  31  32 0
 6-311+G(2d,p)
 ****
 33  34 0
 6-311+G(2d,p)
 ****
 1  2  14  15  16  17  18  19  20  21  22  24  25  26 0
 3-21G
 ****
 27  35  36  37  38  39  40  41  42  43  44  45 0
 3-21G
 ****


