%nproc=1
%NoSave
%Mem=1900MB
#P OB98/GEN NMR

erre ene a

0 1
  C      161.965    -249.156    -223.366
  O      161.959    -249.443    -221.967
  P      162.222    -248.200    -220.988
  C      164.784    -248.233    -220.566
  O      163.702    -247.647    -221.274
  C      166.116    -247.635    -221.019
  O      166.581    -248.207    -222.257
  C      166.055    -246.132    -221.250
  O      166.133    -245.447    -220.013
  C      167.270    -245.906    -222.140
  O      168.475    -245.775    -221.357
  C      167.317    -247.191    -222.983
  N      168.353    -245.945    -227.786
  C      169.127    -245.809    -226.649
  N      170.362    -245.293    -226.821
  N      168.726    -246.154    -225.453
  C      167.469    -246.659    -225.432
  C      166.619    -246.865    -226.492
  C      167.073    -246.479    -227.810
  O      166.434    -246.597    -228.849
  N      165.446    -247.455    -226.087
  C      165.545    -247.483    -224.771
  N      166.778    -247.072    -224.326
  O      162.338    -248.884    -219.546
  O      161.141    -247.173    -221.025
  H      168.368    -245.038    -220.730
  H      161.559    -248.652    -219.006
  H      168.710    -245.654    -228.679
  H      164.768    -247.817    -224.099
  H      168.344    -247.556    -223.100
  H      167.182    -244.985    -222.723
  H      170.737    -245.010    -227.715
  H      165.139    -245.870    -221.794
  H      170.949    -245.194    -226.002
  H      166.859    -247.861    -220.242
  H      164.791    -249.314    -220.722
  H      164.629    -248.073    -219.494
  P      164.770    -245.187    -219.214
  C      163.969    -243.254    -220.748
  O      163.723    -244.550    -220.241
  O      165.145    -243.970    -218.241
  O      164.274    -246.361    -218.436
  H      164.791    -244.145    -217.348
  H      163.531    -243.177    -221.747
  H      165.040    -243.042    -220.813
  H      163.494    -242.514    -220.094
  H      161.780    -250.055    -223.915
  H      162.918    -248.758    -223.644
  H      161.201    -248.440    -223.586

 3  4  5  6  7  8  9  10  11  12  23  26  30  31 0
 6-311+G(2d,p)
 ****
 33  35  36  37  38 0
 6-311+G(2d,p)
 ****
 1  2  13  14  15  16  17  18  19  20  21  22  24  25 0
 3-21G
 ****
 27  28  29  32  34  39  40  41  42  43  44  45  46  47  48  49 0
 3-21G
 ****


