%nproc=1
%NoSave
%Mem=1900MB
#P OB98/GEN NMR

erre ene a

0 1
  C      -12.616    -292.376    -407.178
  O      -12.236    -291.378    -408.127
  P      -12.428    -291.678    -409.693
  C       -9.952    -292.100    -410.232
  O      -11.083    -291.275    -410.471
  C       -8.621    -291.381    -410.518
  O       -8.457    -291.173    -411.955
  C       -8.487    -290.007    -409.854
  O       -7.108    -289.858    -409.486
  C       -8.862    -289.048    -410.968
  O       -8.412    -287.724    -410.722
  C       -8.212    -289.767    -412.161
  N       -8.749    -289.309    -413.438
  C       -8.555    -287.963    -413.765
  O       -8.049    -287.193    -412.946
  N       -8.975    -287.525    -414.996
  C       -9.650    -288.325    -415.764
  N      -10.025    -287.852    -416.995
  C      -10.030    -289.695    -415.373
  C       -9.525    -290.125    -414.224
  O      -13.692    -291.154    -410.302
  O      -12.391    -293.287    -409.751
  H       -8.536    -287.186    -411.537
  H      -13.002    -293.593    -410.456
  H      -10.671    -290.289    -416.012
  H       -9.739    -291.117    -413.851
  H       -7.126    -289.614    -412.162
  H       -9.958    -289.022    -411.078
  H       -9.106    -289.899    -408.953
  H       -7.800    -292.032    -410.191
  H       -9.787    -286.903    -417.240
  H      -10.016    -292.992    -410.863
  H      -10.520    -288.428    -417.661
  H       -9.978    -292.463    -409.190
  P       -6.666    -290.114    -407.967
  C       -5.352    -287.874    -408.036
  O       -5.361    -289.239    -407.679
  O       -6.066    -291.608    -408.048
  O       -7.764    -290.071    -406.950
  H       -6.126    -292.018    -407.166
  H       -4.510    -287.380    -407.515
  H       -6.278    -287.383    -407.742
  H       -5.205    -287.771    -409.115
  H      -12.424    -292.018    -406.188
  H      -12.050    -293.267    -407.351
  H      -13.659    -292.590    -407.284

 3  4  5  6  7  8  9  10  11  12  13  23  27  28  29  30  32 0
 6-311+G(2d,p)
 ****
 34  35 0
 6-311+G(2d,p)
 ****
 1  2  14  15  16  17  18  19  20  21  22  24  25  26 0
 3-21G
 ****
 31  33  36  37  38  39  40  41  42  43  44  45  46 0
 3-21G
 ****


