%nproc=1
%NoSave
%Mem=1900MB
#P OB98/GEN NMR

erre ene a

0 1
  C       24.004      47.718     -50.546
  O       22.598      47.472     -50.613
  P       21.882      47.435     -52.045
  C       21.575      49.961     -52.448
  O       22.255      48.779     -52.844
  C       21.835      51.098     -53.446
  O       21.068      52.283     -53.085
  C       23.311      51.515     -53.490
  O       23.675      51.940     -54.814
  C       23.345      52.732     -52.588
  O       24.483      53.551     -52.849
  C       21.999      53.371     -52.922
  N       19.280      57.614     -52.013
  C       19.481      56.901     -53.143
  N       20.198      55.770     -53.305
  C       20.730      55.373     -52.137
  C       20.603      55.992     -50.903
  C       19.843      57.173     -50.865
  N       19.662      57.914     -49.719
  N       21.294      55.297     -49.931
  C       21.867      54.303     -50.578
  N       21.530      54.287     -51.904
  O       20.430      47.092     -52.034
  O       22.727      46.323     -52.834
  H       24.355      53.959     -53.725
  H       22.113      45.761     -53.347
  H       19.007      57.296     -54.037
  H       22.542      53.581     -50.140
  H       22.035      53.920     -53.871
  H       23.384      52.416     -51.539
  H       24.012      50.740     -53.166
  H       21.493      50.786     -54.438
  H       21.905      50.259     -51.451
  H       19.200      58.806     -49.812
  H       20.196      57.678     -48.895
  H       20.504      49.747     -52.359
  P       24.498      50.874     -55.696
  C       26.868      51.708     -54.978
  O       25.901      50.683     -54.950
  O       24.563      51.223     -57.145
  O       23.703      49.517     -55.397
  H       23.553      49.331     -54.456
  H       27.690      51.436     -54.311
  H       26.443      52.656     -54.637
  H       27.264      51.824     -55.991
  H       24.319      47.710     -49.524
  H       24.220      48.673     -50.978
  H       24.526      46.956     -51.086

 3  4  5  6  7  8  9  10  11  12  22  25  29  30  31  32 0
 6-311+G(2d,p)
 ****
 33  36  37 0
 6-311+G(2d,p)
 ****
 1  2  13  14  15  16  17  18  19  20  21  23  24  26 0
 3-21G
 ****
 27  28  34  35  38  39  40  41  42  43  44  45  46  47  48 0
 3-21G
 ****


