%nproc=1
%NoSave
%Mem=1900MB
#P OB98/GEN NMR

erre ene a

0 1
  C       72.068       5.119     -24.958
  O       72.229       5.657     -26.256
  H       71.082       4.650     -24.893
  H       72.131       5.914     -24.210
  H       72.833       4.361     -24.765
  P       73.613       6.415     -26.548
  C       72.901       8.896     -26.803
  O       73.444       7.897     -25.952
  C       71.378       8.795     -26.837
  O       70.839       8.741     -25.499
  C       70.685       9.957     -27.539
  O       70.675       9.777     -28.946
  C       69.294       9.888     -26.928
  O       68.485       8.879     -27.568
  C       69.602       9.500     -25.474
  N       67.063      13.136     -23.059
  C       66.603      12.103     -23.850
  N       65.270      12.066     -24.073
  N       67.376      11.195     -24.382
  C       68.688      11.379     -24.100
  C       69.266      12.353     -23.317
  C       68.392      13.333     -22.708
  O       68.730      14.233     -21.945
  N       70.626      12.195     -23.255
  C       70.874      11.157     -24.027
  N       69.731      10.636     -24.577
  O       73.583       6.652     -28.133
  O       74.845       5.687     -26.125
  H       67.652       8.777     -27.078
  H       74.497       6.643     -28.474
  H       66.414      13.793     -22.662
  H       71.856      10.745     -24.219
  H       68.828       8.848     -25.050
  H       68.756      10.831     -27.036
  H       64.692      12.892     -23.978
  H       71.154      10.911     -27.265
  H       64.927      11.324     -24.670
  H       71.122       7.845     -27.327
  H       73.293       8.753     -27.815
  H       73.203       9.884     -26.440
  P       70.659      11.092     -29.867
  C       68.227      11.562     -30.663
  O       69.217      11.767     -29.665
  O       70.581      10.500     -31.352
  O       71.828      11.996     -29.682
  H       70.835      11.186     -31.997
  H       67.329      12.072     -30.384
  H       68.028      10.515     -30.758
  H       68.579      11.944     -31.598

 6  7  8  9  10  11  12  13  14  15  26  29  33  34 0
 6-311+G(2d,p)
 ****
 36  38  39  40  41 0
 6-311+G(2d,p)
 ****
 1  2  3  4  5  16  17  18  19  20  21  22  23  24  25 0
 3-21G
 ****
 27  28  30  31  32  35  37  42  43  44  45  46  47 0
 3-21G
 ****
 48  49 0
 3-21G
 ****


