%nproc=1
%NoSave
%Mem=1900MB
#P OB98/GEN NMR

erre ene a

0 1
  C     -536.091     253.861    -111.993
  O     -534.853     253.146    -112.047
  P     -534.455     252.323    -110.727
  C     -532.813     253.868    -109.452
  O     -534.142     253.378    -109.559
  C     -532.421     254.113    -107.990
  O     -532.384     252.861    -107.244
  C     -531.048     254.772    -107.821
  O     -531.135     255.630    -106.676
  C     -530.146     253.596    -107.493
  O     -528.933     254.021    -106.884
  C     -531.091     252.790    -106.602
  N     -529.039     249.513    -103.353
  C     -529.221     250.878    -103.248
  N     -528.850     251.444    -102.079
  N     -529.729     251.620    -104.196
  C     -530.093     250.910    -105.291
  C     -529.978     249.556    -105.513
  C     -529.385     248.751    -104.466
  O     -529.206     247.541    -104.510
  N     -530.489     249.200    -106.745
  C     -530.846     250.358    -107.278
  N     -530.680     251.411    -106.421
  O     -533.019     251.718    -111.095
  O     -535.433     251.251    -110.373
  H     -529.145     254.296    -105.965
  H     -533.105     250.785    -111.361
  H     -528.629     248.993    -102.598
  H     -531.255     250.483    -108.268
  H     -531.181     253.219    -105.593
  H     -529.899     253.041    -108.406
  H     -528.501     250.923    -101.287
  H     -530.705     255.338    -108.693
  H     -529.011     252.436    -101.958
  H     -533.192     254.743    -107.533
  H     -532.715     254.803    -110.008
  H     -532.132     253.156    -109.931
  P     -531.369     257.195    -106.927
  C     -528.937     258.071    -106.791
  O     -530.046     257.772    -107.614
  O     -531.319     257.808    -105.449
  O     -532.658     257.529    -107.604
  H     -531.991     258.514    -105.367
  H     -528.025     257.995    -107.383
  H     -528.866     257.386    -105.941
  H     -529.033     259.095    -106.414
  H     -536.251     254.368    -112.922
  H     -536.056     254.576    -111.198
  H     -536.893     253.174    -111.819

 3  4  5  6  7  8  9  10  11  12  23  26  30  31 0
 6-311+G(2d,p)
 ****
 33  35  36  37  38 0
 6-311+G(2d,p)
 ****
 1  2  13  14  15  16  17  18  19  20  21  22  24  25 0
 3-21G
 ****
 27  28  29  32  34  39  40  41  42  43  44  45  46  47  48  49 0
 3-21G
 ****


