%nproc=1
%NoSave
%Mem=1900MB
#P OB98/GEN NMR

erre ene a

0 1
  C      425.389     617.161    -191.707
  O      424.982     618.213    -192.560
  H      425.587     616.259    -192.286
  H      426.308     617.461    -191.196
  H      424.617     616.965    -190.954
  P      423.654     617.960    -193.434
  C      424.577     619.012    -195.627
  O      423.659     619.116    -194.547
  C      424.701     620.365    -196.314
  O      423.404     620.825    -196.754
  C      425.251     621.464    -195.414
  O      426.665     621.439    -195.326
  C      424.766     622.705    -196.154
  O      425.596     622.944    -197.297
  C      423.353     622.277    -196.590
  N      421.147     626.065    -193.955
  C      422.128     626.066    -194.889
  N      422.646     625.016    -195.554
  C      422.040     623.874    -195.189
  C      421.017     623.724    -194.265
  C      420.566     624.894    -193.617
  N      419.585     624.892    -192.648
  N      420.664     622.391    -194.145
  C      421.449     621.759    -195.001
  N      422.317     622.612    -195.630
  O      422.466     618.403    -192.455
  O      423.483     616.581    -193.974
  H      426.455     623.276    -196.973
  H      421.607     618.088    -192.796
  H      422.557     627.037    -195.117
  H      421.431     620.696    -195.188
  H      423.060     622.710    -197.559
  H      424.805     623.600    -195.534
  H      424.788     621.437    -194.421
  H      425.322     620.242    -197.215
  H      424.204     618.270    -196.347
  H      419.446     625.755    -192.147
  H      419.258     624.007    -192.295
  H      425.550     618.690    -195.253
  P      427.318     620.762    -194.013
  C      428.809     622.790    -193.405
  O      428.762     621.437    -193.826
  O      427.657     619.283    -194.519
  O      426.428     620.765    -192.815
  H      427.580     618.634    -193.791
  H      429.829     623.103    -193.324
  H      428.330     622.884    -192.453
  H      428.303     623.404    -194.121

 6  7  8  9  10  11  12  13  14  15  25  28  32  33  34  35 0
 6-311+G(2d,p)
 ****
 36  39  40 0
 6-311+G(2d,p)
 ****
 1  2  3  4  5  16  17  18  19  20  21  22  23  24 0
 3-21G
 ****
 26  27  29  30  31  37  38  41  42  43  44  45  46  47 0
 3-21G
 ****
 48 0
 3-21G
 ****


