%nproc=1
%NoSave
%Mem=1900MB
#P OB98/GEN NMR

erre ene a

0 1
  C     -898.820    -120.238     341.060
  O     -897.980    -119.501     341.927
  H     -898.330    -121.175     340.797
  H     -899.000    -119.666     340.142
  H     -899.780    -120.471     341.538
  P     -898.570    -118.227     342.697
  C     -897.800    -118.459     345.149
  O     -897.540    -117.886     343.875
  C     -896.560    -118.432     346.032
  O     -895.600    -119.422     345.550
  C     -895.830    -117.071     346.037
  O     -895.210    -116.929     347.327
  C     -894.770    -117.280     344.972
  O     -893.730    -116.314     345.071
  C     -894.380    -118.733     345.240
  N     -893.670    -119.336     344.105
  C     -892.460    -118.759     343.742
  O     -891.990    -117.762     344.319
  N     -891.810    -119.328     342.680
  C     -892.270    -120.355     341.929
  O     -891.670    -120.798     340.973
  C     -893.580    -120.903     342.321
  C     -894.210    -120.381     343.384
  O     -900.000    -118.345     343.120
  O     -898.350    -117.016     341.672
  H     -894.110    -115.424     345.020
  H     -899.050    -116.344     341.797
  H     -890.920    -118.918     342.419
  H     -893.980    -121.712     341.738
  H     -895.190    -120.758     343.693
  H     -893.730    -118.794     346.122
  H     -895.220    -117.182     343.975
  H     -896.500    -116.228     345.839
  H     -896.830    -118.736     347.057
  H     -898.130    -119.500     344.993
  H     -898.620    -117.918     345.633
  P     -895.090    -115.497     348.054
  C     -894.370    -116.103     350.451
  O     -893.960    -115.593     349.195
  O     -896.390    -114.932     348.534
  O     -894.440    -114.537     346.949
  H     -894.710    -113.610     347.110
  H     -893.535    -116.117     351.120
  H     -894.745    -117.098     350.327
  H     -895.140    -115.480     350.855

 6  7  8  9  10  11  12  13  14  15  16  26  31  32  33  34  35 0
 6-311+G(2d,p)
 ****
 36  37 0
 6-311+G(2d,p)
 ****
 1  2  3  4  5  17  18  19  20  21  22  23  24  25 0
 3-21G
 ****
 27  28  29  30  38  39  40  41  42  43  44  45 0
 3-21G
 ****


