%nproc=1
%NoSave
%Mem=1900MB
#P OB98/GEN NMR

erre ene a

0 1
  C       -5.272      -3.840     -88.166
  O       -4.887      -4.135     -89.490
  H       -6.001      -4.586     -87.840
  H       -5.741      -2.853     -88.132
  H       -4.417      -3.863     -87.485
  P       -3.529      -3.507     -90.055
  C       -1.837      -4.024     -91.933
  O       -2.965      -4.482     -91.199
  C       -0.884      -5.168     -92.277
  O       -0.400      -5.779     -91.062
  C       -1.563      -6.275     -93.088
  O       -1.558      -6.063     -94.490
  C       -0.727      -7.496     -92.716
  O        0.406      -7.640     -93.587
  C       -0.270      -7.190     -91.286
  N       -1.332     -11.725     -89.178
  C       -0.625     -11.451     -90.335
  N       -0.184     -12.523     -91.026
  N       -0.396     -10.239     -90.767
  C       -0.986      -9.276     -90.024
  C       -1.724      -9.427     -88.872
  C       -1.910     -10.768     -88.358
  O       -2.513     -11.062     -87.332
  N       -2.198      -8.221     -88.414
  C       -1.819      -7.359     -89.336
  N       -1.014      -7.938     -90.288
  O       -2.485      -3.741     -88.858
  O       -3.593      -2.056     -90.422
  H        0.955      -8.373     -93.250
  H       -1.828      -3.022     -88.855
  H       -1.451     -12.676     -88.880
  H       -2.059      -6.302     -89.339
  H        0.789      -7.439     -91.144
  H       -1.315      -8.413     -92.811
  H       -0.405     -13.476     -90.785
  H       -2.585      -6.441     -92.736
  H        0.171     -12.373     -91.972
  H       -0.009      -4.764     -92.803
  H       -1.331      -3.293     -91.301
  H       -2.158      -3.507     -92.842
  P       -2.633      -6.778     -95.431
  C       -3.234      -6.706     -97.986
  O       -2.462      -6.213     -96.913
  O       -4.018      -6.137     -94.949
  O       -2.654      -8.270     -95.365
  H       -4.479      -6.737     -94.333
  H       -2.962      -6.194     -98.886
  H       -4.272      -6.544     -97.783
  H       -3.053      -7.754     -98.104

 6  7  8  9  10  11  12  13  14  15  26  29  33  34 0
 6-311+G(2d,p)
 ****
 36  38  39  40  41 0
 6-311+G(2d,p)
 ****
 1  2  3  4  5  16  17  18  19  20  21  22  23  24  25 0
 3-21G
 ****
 27  28  30  31  32  35  37  42  43  44  45  46  47 0
 3-21G
 ****
 48  49 0
 3-21G
 ****


