%nproc=1
%NoSave
%Mem=1900MB
#P OB98/GEN NMR

erre ene a

0 1
  C      153.712     113.380    -310.652
  O      152.371     112.946    -310.827
  P      151.674     112.973    -312.271
  C      150.902     115.415    -312.031
  O      151.739     114.508    -312.733
  C      150.930     116.786    -312.701
  O      152.287     117.284    -312.662
  C      150.538     116.815    -314.181
  O      149.139     116.885    -314.415
  C      151.188     118.123    -314.619
  O      150.372     119.233    -314.205
  C      152.503     118.106    -313.837
  N      156.579     119.273    -316.707
  C      155.690     120.047    -316.041
  N      154.617     119.660    -315.315
  C      154.535     118.317    -315.273
  C      155.366     117.403    -315.895
  C      156.436     117.932    -316.641
  N      157.353     117.140    -317.302
  N      154.950     116.111    -315.640
  C      153.892     116.252    -314.867
  N      153.608     117.564    -314.610
  O      150.327     112.341    -312.321
  O      152.732     112.260    -313.235
  H      150.314     119.195    -313.232
  H      152.298     111.993    -314.067
  H      155.852     121.120    -316.105
  H      153.304     115.435    -314.475
  H      152.798     119.104    -313.486
  H      151.301     118.195    -315.706
  H      150.994     115.982    -314.731
  H      150.300     117.470    -312.118
  H      151.278     115.506    -311.005
  H      158.155     117.599    -317.702
  H      157.341     116.146    -317.121
  H      149.883     115.017    -311.990
  P      148.574     116.104    -315.708
  C      148.585     118.298    -317.139
  O      149.042     116.971    -316.973
  O      147.122     115.786    -315.647
  O      149.516     114.814    -315.781
  H      150.448     114.989    -315.992
  H      149.137     118.762    -317.959
  H      148.753     118.886    -316.229
  H      147.519     118.300    -317.384
  H      153.987     113.283    -309.622
  H      153.797     114.404    -310.949
  H      154.363     112.779    -311.253

 3  4  5  6  7  8  9  10  11  12  22  25  29  30  31  32 0
 6-311+G(2d,p)
 ****
 33  36  37 0
 6-311+G(2d,p)
 ****
 1  2  13  14  15  16  17  18  19  20  21  23  24  26 0
 3-21G
 ****
 27  28  34  35  38  39  40  41  42  43  44  45  46  47  48 0
 3-21G
 ****


