%nproc=1
%NoSave
%Mem=1900MB
#P OB98/GEN NMR

erre ene a

0 1
  C      -17.601    -793.005     529.318
  O      -16.585    -792.622     528.389
  P      -17.008    -791.511     527.302
  C      -17.580    -793.127     525.362
  O      -16.713    -792.120     525.849
  C      -17.181    -793.574     523.944
  O      -16.749    -792.427     523.154
  C      -16.033    -794.594     523.927
  O      -16.279    -795.487     522.827
  C      -14.826    -793.714     523.641
  O      -13.685    -794.439     523.207
  C      -15.441    -792.752     522.622
  N      -11.035    -790.952     520.776
  C      -11.534    -792.204     520.862
  N      -12.720    -792.609     521.378
  C      -13.419    -791.551     521.819
  C      -13.045    -790.215     521.798
  C      -11.787    -789.925     521.243
  N      -11.254    -788.658     521.171
  N      -14.028    -789.420     522.376
  C      -14.941    -790.279     522.792
  N      -14.656    -791.562     522.409
  O      -15.898    -790.370     527.483
  O      -18.395    -790.992     527.498
  H      -12.929    -793.830     523.105
  H      -16.248    -789.639     528.025
  H      -10.896    -793.003     520.478
  H      -15.820    -790.026     523.377
  H      -15.585    -793.230     521.646
  H      -14.544    -793.181     524.557
  H      -15.946    -795.179     524.845
  H      -18.068    -794.001     523.451
  H      -18.613    -792.764     525.340
  H      -10.345    -788.552     520.754
  H      -11.784    -787.859     521.521
  H      -17.574    -793.981     526.053
  P      -17.209    -796.766     523.066
  C      -15.179    -798.323     522.877
  O      -16.439    -797.968     522.323
  O      -18.392    -796.477     522.003
  O      -17.682    -797.000     524.461
  H      -18.034    -796.252     521.135
  H      -14.797    -799.196     522.343
  H      -15.283    -798.571     523.939
  H      -14.469    -797.493     522.754
  H      -17.212    -793.743     529.988
  H      -18.436    -793.411     528.786
  H      -17.916    -792.148     529.875

 3  4  5  6  7  8  9  10  11  12  22  25  29  30  31  32 0
 6-311+G(2d,p)
 ****
 33  36  37 0
 6-311+G(2d,p)
 ****
 1  2  13  14  15  16  17  18  19  20  21  23  24  26 0
 3-21G
 ****
 27  28  34  35  38  39  40  41  42  43  44  45  46  47  48 0
 3-21G
 ****


