%nproc=1
%NoSave
%Mem=1900MB
#P OB98/GEN NMR

erre ene a

0 1
  C      680.538     697.372     898.524
  O      681.166     696.382     897.746
  P      680.825     694.818     897.949
  C      682.511     694.172     896.115
  O      682.143     694.034     897.499
  C      683.721     693.275     895.814
  O      683.402     691.932     896.199
  C      684.145     693.205     894.346
  O      684.995     694.277     893.911
  C      684.945     691.913     894.359
  O      686.262     692.157     894.893
  C      684.135     691.035     895.305
  N      683.443     686.491     893.090
  C      684.502     687.021     893.716
  N      684.609     688.241     894.271
  C      683.456     688.934     894.148
  C      682.288     688.498     893.523
  C      682.306     687.207     892.970
  N      681.207     686.656     892.314
  N      681.325     689.485     893.587
  C      681.879     690.473     894.243
  N      683.177     690.185     894.605
  O      679.548     694.378     897.315
  O      680.836     694.636     899.551
  H      686.675     692.829     894.332
  H      680.366     693.798     899.789
  H      685.390     686.387     893.809
  H      681.408     691.436     894.471
  H      684.763     690.391     895.939
  H      685.077     691.499     893.342
  H      683.264     693.099     893.700
  H      684.559     693.640     896.453
  H      682.762     695.219     895.927
  H      681.278     685.675     892.073
  H      680.317     687.139     892.403
  H      681.655     693.904     895.487
  P      684.562     695.034     892.551
  C      686.435     696.776     893.150
  O      685.814     695.970     892.175
  O      683.236     695.724     892.605
  O      684.644     693.851     891.477
  H      685.529     693.497     891.296
  H      687.377     697.205     892.732
  H      686.692     696.195     894.020
  H      685.761     697.604     893.432
  H      680.901     698.336     898.235
  H      680.756     697.204     899.558
  H      679.480     697.328     898.371

 3  4  5  6  7  8  9  10  11  12  22  25  29  30  31  32 0
 6-311+G(2d,p)
 ****
 33  36  37 0
 6-311+G(2d,p)
 ****
 1  2  13  14  15  16  17  18  19  20  21  23  24  26 0
 3-21G
 ****
 27  28  34  35  38  39  40  41  42  43  44  45  46  47  48 0
 3-21G
 ****


