%nproc=1
%NoSave
%Mem=1900MB
#P OB98/GEN NMR

erre ene a

0 1
  C      -92.688     206.412     243.954
  O      -93.202     207.135     242.831
  P      -94.783     207.386     242.775
  C      -94.290     209.912     243.184
  O      -95.108     208.784     243.489
  C      -94.729     211.119     244.013
  O      -96.080     211.509     243.692
  C      -94.736     210.850     245.505
  O      -93.426     210.896     246.032
  C      -95.651     211.954     246.026
  O      -94.911     213.139     246.357
  C      -96.601     212.214     244.833
  N      -97.974     211.822     245.112
  C      -98.856     212.866     245.407
  O      -98.452     214.034     245.441
  N     -100.166     212.559     245.682
  C     -100.553     211.322     245.685
  N     -101.857     211.079     245.967
  C      -99.645     210.189     245.406
  C      -98.381     210.512     245.132
  O      -95.362     206.304     243.806
  O      -95.380     207.220     241.415
  H      -94.347     213.327     245.579
  H      -96.242     205.995     243.512
  H     -100.009     209.171     245.434
  H      -97.643     209.742     244.917
  H      -96.600     213.279     244.569
  H      -96.171     211.650     246.937
  H      -95.196     209.869     245.708
  H      -94.057     211.961     243.788
  H     -102.451     211.881     246.157
  H      -94.352     210.147     242.122
  H     -102.262     210.151     246.009
  H      -93.245     209.656     243.386
  P      -93.098     209.997     247.316
  C      -90.728     209.988     246.324
  O      -91.744     209.218     246.944
  O      -94.193     208.829     247.189
  O      -93.142     210.663     248.645
  H      -94.164     208.256     247.977
  H      -89.804     209.404     246.321
  H      -90.556     210.918     246.881
  H      -91.009     210.214     245.292
  H      -91.626     206.319     243.862
  H      -93.130     205.438     243.984
  H      -92.923     206.939     244.855

 3  4  5  6  7  8  9  10  11  12  13  21  23  27  28  29  30  32 0
 6-311+G(2d,p)
 ****
 34  35 0
 6-311+G(2d,p)
 ****
 1  2  14  15  16  17  18  19  20  22  24  25  26 0
 3-21G
 ****
 31  33  36  37  38  39  40  41  42  43  44  45  46 0
 3-21G
 ****


