%nproc=1
%NoSave
%Mem=1900MB
#P OB98/GEN NMR

erre ene a

0 1
  C      250.531     -77.943      78.152
  O      250.539     -76.670      78.768
  H      251.556     -78.308      78.056
  H      249.969     -78.634      78.785
  H      250.055     -77.897      77.166
  P      251.042     -75.428      77.884
  C      250.461     -72.907      78.133
  O      250.831     -74.112      78.787
  C      250.155     -71.810      79.156
  O      248.848     -72.082      79.742
  C      251.174     -71.717      80.306
  O      251.370     -70.331      80.624
  C      250.450     -72.394      81.466
  O      250.914     -71.941      82.735
  C      249.002     -72.021      81.171
  N      246.347     -72.757      85.453
  C      246.941     -71.657      84.940
  N      247.587     -71.534      83.758
  C      247.522     -72.684      83.056
  C      246.940     -73.883      83.447
  C      246.349     -73.899      84.724
  N      245.801     -75.031      85.284
  N      247.132     -74.845      82.475
  C      247.833     -74.248      81.529
  N      248.093     -72.942      81.838
  O      249.890     -75.307      76.771
  O      252.395     -75.578      77.275
  H      250.370     -72.354      83.432
  H      250.103     -75.888      76.019
  H      246.908     -70.765      85.556
  H      248.200     -74.718      80.623
  H      248.745     -71.008      81.502
  H      250.604     -73.477      81.408
  H      252.134     -72.184      80.083
  H      250.075     -70.853      78.628
  H      249.568     -73.090      77.528
  H      245.489     -74.978      86.247
  H      245.893     -75.911      84.803
  H      251.273     -72.586      77.471
  P      252.564     -69.566      79.877
  C      252.860     -67.048      79.253
  O      252.473     -68.004      80.235
  O      252.129     -69.618      78.337
  O      253.909     -70.185      80.097
  H      252.917     -69.670      77.767
  H      252.740     -66.061      79.649
  H      252.246     -67.161      78.384
  H      253.885     -67.204      78.988

 6  7  8  9  10  11  12  13  14  15  25  28  32  33  34  35 0
 6-311+G(2d,p)
 ****
 36  39  40 0
 6-311+G(2d,p)
 ****
 1  2  3  4  5  16  17  18  19  20  21  22  23  24 0
 3-21G
 ****
 26  27  29  30  31  37  38  41  42  43  44  45  46  47 0
 3-21G
 ****
 48 0
 3-21G
 ****


