%nproc=1
%NoSave
%Mem=1900MB
#P OB98/GEN NMR

erre ene a

0 1
  C     -365.328    -158.141     278.769
  O     -364.408    -158.552     279.756
  H     -365.134    -157.093     278.522
  H     -366.349    -158.224     279.151
  H     -365.218    -158.743     277.863
  P     -364.404    -160.106     280.161
  C     -363.894    -159.731     282.680
  O     -363.438    -160.243     281.437
  C     -362.987    -158.591     283.152
  O     -363.226    -157.428     282.317
  C     -363.224    -158.184     284.609
  O     -361.960    -157.869     285.203
  C     -364.060    -156.919     284.496
  O     -363.928    -156.067     285.636
  C     -363.540    -156.321     283.182
  N     -364.524    -155.422     282.580
  C     -364.117    -154.104     282.364
  O     -362.985    -153.742     282.691
  N     -365.018    -153.207     281.846
  C     -366.242    -153.580     281.636
  N     -367.096    -152.637     281.149
  C     -366.734    -154.945     281.914
  C     -365.830    -155.805     282.371
  O     -363.561    -160.791     278.987
  O     -365.750    -160.725     280.334
  H     -364.270    -156.548     286.418
  H     -363.872    -161.701     278.815
  H     -367.768    -155.197     281.751
  H     -366.095    -156.829     282.608
  H     -362.612    -155.762     283.354
  H     -365.118    -157.189     284.398
  H     -363.720    -158.955     285.198
  H     -361.944    -158.891     282.993
  H     -366.726    -151.709     280.992
  H     -363.875    -160.532     283.425
  H     -368.084    -152.800     280.996
  H     -364.925    -159.377     282.571
  P     -361.524    -158.746     286.472
  C     -361.593    -156.722     288.103
  O     -360.818    -157.770     287.535
  O     -360.321    -159.635     285.911
  O     -362.629    -159.591     287.025
  H     -360.607    -160.563     285.821
  H     -360.989    -156.162     288.787
  H     -362.429    -157.139     288.624
  H     -361.943    -156.076     287.325

 6  7  8  9  10  11  12  13  14  15  16  26  30  31  32  33  35 0
 6-311+G(2d,p)
 ****
 37  38 0
 6-311+G(2d,p)
 ****
 1  2  3  4  5  17  18  19  20  21  22  23  24  25 0
 3-21G
 ****
 27  28  29  34  36  39  40  41  42  43  44  45  46 0
 3-21G
 ****


