%nproc=1
%NoSave
%Mem=1900MB
#P OB98/GEN NMR

erre ene a

0 1
  C     -367.675    -893.363    -501.333
  O     -367.540    -893.349    -499.919
  H     -368.406    -892.591    -501.618
  H     -368.031    -894.332    -501.680
  H     -366.713    -893.124    -501.800
  P     -366.586    -894.473    -499.281
  C     -365.895    -892.649    -497.555
  O     -366.267    -894.006    -497.770
  C     -366.265    -892.257    -496.119
  O     -367.690    -892.020    -496.038
  C     -365.965    -893.328    -495.083
  O     -364.589    -893.365    -494.711
  C     -366.856    -892.864    -493.930
  O     -366.228    -891.860    -493.129
  C     -368.078    -892.308    -494.667
  N     -369.219    -893.218    -494.601
  C     -369.983    -893.148    -493.433
  O     -369.733    -892.382    -492.511
  N     -371.035    -894.023    -493.350
  C     -371.353    -894.988    -494.265
  O     -372.263    -895.787    -494.102
  C     -370.503    -895.031    -495.477
  C     -369.494    -894.162    -495.587
  O     -365.197    -894.248    -500.041
  O     -367.075    -895.867    -499.406
  H     -365.063    -894.964    -500.689
  H     -366.839    -891.679    -492.383
  H     -371.604    -893.996    -492.511
  H     -370.723    -895.780    -496.233
  H     -368.838    -894.177    -496.464
  H     -368.382    -891.354    -494.227
  H     -367.101    -893.705    -493.272
  H     -366.301    -894.302    -495.433
  H     -365.754    -891.317    -495.874
  H     -366.436    -891.993    -498.245
  H     -364.824    -892.540    -497.721
  P     -364.051    -894.675    -493.969
  C     -361.869    -894.943    -495.420
  O     -362.469    -894.662    -494.142
  O     -364.575    -895.807    -494.955
  O     -364.547    -894.772    -492.561
  H     -364.662    -895.486    -495.867
  H     -360.804    -894.887    -495.334
  H     -362.207    -894.226    -496.138
  H     -362.150    -895.926    -495.737

 6  7  8  9  10  11  12  13  14  15  16  27  31  32  33  34  35 0
 6-311+G(2d,p)
 ****
 36  37 0
 6-311+G(2d,p)
 ****
 1  2  3  4  5  17  18  19  20  21  22  23  24  25 0
 3-21G
 ****
 26  28  29  30  38  39  40  41  42  43  44  45 0
 3-21G
 ****


