%nproc=1
%NoSave
%Mem=1900MB
#P OB98/GEN NMR

erre ene a

0 1
  C      157.455     320.726      14.625
  O      157.265     322.101      14.340
  H      157.609     320.608      15.701
  H      158.331     320.351      14.092
  H      156.566     320.156      14.331
  P      156.978     322.477      12.807
  C      159.403     322.105      11.917
  O      158.054     321.657      11.941
  C      160.152     321.457      10.749
  O      161.502     322.015      10.697
  C      160.303     319.931      10.881
  O      160.346     319.358       9.560
  C      161.678     319.808      11.521
  O      162.173     318.498      11.390
  C      162.418     320.897      10.752
  N      167.334     319.671      11.325
  C      166.355     319.136      10.562
  N      165.068     319.530      10.461
  C      164.836     320.609      11.229
  C      165.737     321.262      12.059
  C      167.046     320.746      12.098
  N      168.037     321.272      12.886
  N      165.116     322.313      12.709
  C      163.870     322.299      12.277
  N      163.660     321.286      11.382
  O      157.486     323.995      12.703
  O      155.566     322.330      12.358
  H      162.120     318.193      10.461
  H      156.744     324.606      12.864
  H      166.642     318.282       9.960
  H      163.088     322.981      12.578
  H      162.646     320.598       9.718
  H      161.635     320.038      12.592
  H      159.503     319.464      11.461
  H      159.664     321.728       9.806
  H      159.881     321.831      12.866
  H      159.422     323.195      11.803
  H      168.942     320.824      12.879
  H      167.825     322.048      13.492
  P      159.155     318.381       9.098
  C      160.108     316.152      10.066
  O      159.061     317.112      10.074
  O      159.760     317.740       7.760
  O      157.854     319.055       8.807
  H      159.083     317.750       7.055
  H      159.887     315.378      10.771
  H      161.029     316.626      10.334
  H      160.197     315.729       9.087

 6  7  8  9  10  11  12  13  14  15  25  28  32  33  34  35 0
 6-311+G(2d,p)
 ****
 36  37  40 0
 6-311+G(2d,p)
 ****
 1  2  3  4  5  16  17  18  19  20  21  22  23  24 0
 3-21G
 ****
 26  27  29  30  31  38  39 41  42  43  44  45  46  47  48 0
 3-21G
 ****


