%nproc=1
%NoSave
%Mem=1900MB
#P OB98/GEN NMR

erre ene a

0 1
  C      271.535    -924.338     310.961
  O      270.923    -925.165     311.930
  P      269.375    -925.577     311.802
  C      267.169    -924.419     312.463
  O      268.559    -924.247     312.139
  C      266.778    -923.545     313.657
  O      266.753    -922.149     313.290
  C      265.382    -923.844     314.210
  O      265.406    -925.025     314.998
  C      265.098    -922.566     314.994
  O      265.714    -922.602     316.297
  C      265.768    -921.489     314.107
  N      264.798    -920.749     313.304
  C      263.823    -920.050     314.016
  O      263.782    -920.106     315.249
  N      262.877    -919.347     313.310
  C      262.908    -919.361     312.011
  N      261.918    -918.645     311.378
  C      263.901    -920.107     311.228
  C      264.809    -920.776     311.928
  O      268.970    -926.791     312.567
  O      269.172    -925.737     310.214
  H      265.186    -923.250     316.825
  H      269.591    -926.559     309.874
  H      263.866    -920.093     310.141
  H      265.582    -921.347     311.429
  H      266.323    -920.773     314.732
  H      264.026    -922.408     315.145
  H      264.666    -923.933     313.387
  H      267.533    -923.677     314.444
  H      261.234    -918.171     311.947
  H      267.002    -925.471     312.713
  H      261.820    -918.623     310.365
  H      266.551    -924.177     311.578
  P      264.023    -925.640     315.534
  C      262.151    -924.971     317.152
  O      263.354    -924.572     316.507
  O      264.121    -927.047     316.073
  O      263.069    -925.611     314.235
  H      262.596    -926.451     314.182
  H      261.979    -924.311     318.014
  H      262.222    -926.010     317.504
  H      261.318    -924.882     316.461
  H      272.560    -924.180     311.223
  H      271.028    -923.397     310.924
  H      271.480    -924.811     310.003

 3  4  5  6  7  8  9  10  11  12  13  23  27  28  29  30  32 0
 6-311+G(2d,p)
 ****
 34  35 0
 6-311+G(2d,p)
 ****
 1  2  14  15  16  17  18  19  20  21  22  24  25  26 0
 3-21G
 ****
 31  33  36  37  38  39  40  41  42  43  44  45  46 0
 3-21G
 ****


