%nproc=1
%NoSave
%Mem=1900MB
#P OB98/GEN NMR

erre ene a

0 1
  C      112.483    -201.624    -157.097
  O      112.168    -202.958    -156.747
  H      111.990    -200.928    -156.413
  H      113.566    -201.485    -157.020
  H      112.172    -201.419    -158.126
  P      110.615    -203.361    -156.762
  C      110.950    -203.838    -159.297
  O      110.157    -203.217    -158.295
  C      110.041    -204.626    -160.238
  O      109.131    -203.730    -160.918
  C      110.793    -205.366    -161.340
  O      111.319    -206.607    -160.898
  C      109.680    -205.571    -162.354
  O      108.821    -206.643    -161.925
  C      108.936    -204.228    -162.270
  N      109.932    -203.259    -167.200
  C      109.390    -204.333    -166.582
  N      109.140    -204.505    -165.269
  C      109.496    -203.414    -164.570
  C      110.052    -202.243    -165.061
  C      110.276    -202.186    -166.447
  N      110.854    -201.107    -167.077
  N      110.301    -201.354    -164.033
  C      109.887    -201.974    -162.945
  N      109.421    -203.235    -163.214
  O      109.891    -202.119    -156.055
  O      110.273    -204.670    -156.135
  H      108.371    -206.341    -161.113
  H      108.976    -202.353    -155.808
  H      109.131    -205.167    -167.230
  H      109.911    -201.559    -161.945
  H      107.857    -204.331    -162.435
  H      110.054    -205.833    -163.346
  H      111.573    -204.740    -161.787
  H      109.439    -205.320    -159.638
  H      111.662    -204.518    -158.820
  H      111.110    -201.222    -168.046
  H      111.247    -200.369    -166.511
  H      111.497    -203.073    -159.855
  P      112.731    -207.071    -161.509
  C      114.014    -205.730    -159.688
  O      113.801    -205.952    -161.077
  O      112.544    -206.817    -163.077
  O      113.107    -208.483    -161.205
  H      113.050    -207.465    -163.599
  H      114.748    -204.962    -159.558
  H      114.359    -206.634    -159.231
  H      113.096    -205.427    -159.230

 6  7  8  9  10  11  12  13  14  15  25  28  32  33  34  35 0
 6-311+G(2d,p)
 ****
 36  39  40 0
 6-311+G(2d,p)
 ****
 1  2  3  4  5  16  17  18  19  20  21  22  23  24 0
 3-21G
 ****
 26  27  29  30  31  37  38  41  42  43  44  45  46  47 0
 3-21G
 ****
 48 0
 3-21G
 ****


