%nproc=1
%NoSave
%Mem=1900MB
#P OB98/GEN NMR

erre ene a

0 1
  C      306.249    -182.084     254.916
  O      307.485    -182.056     254.176
  P      307.794    -180.804     253.212
  C      309.546    -179.600     254.738
  O      308.269    -179.561     254.110
  C      309.754    -178.337     255.577
  O      308.885    -178.344     256.732
  C      311.159    -178.181     256.142
  O      312.077    -177.742     255.155
  C      310.930    -177.166     257.256
  O      310.914    -175.825     256.734
  C      309.528    -177.568     257.766
  N      309.577    -178.296     259.031
  C      310.006    -177.576     260.140
  O      310.387    -176.407     260.080
  N      310.020    -178.259     261.328
  C      309.720    -179.579     261.498
  O      309.768    -180.144     262.585
  C      309.350    -180.312     260.272
  C      309.305    -179.646     259.115
  O      306.317    -180.352     252.777
  O      308.633    -181.107     252.009
  H      310.269    -175.818     256.001
  H      306.351    -179.926     251.897
  H      310.299    -177.744     262.152
  H      309.129    -181.365     260.363
  H      309.034    -180.175     258.204
  H      308.909    -176.675     257.903
  H      311.707    -177.205     258.022
  H      311.489    -179.131     256.584
  H      309.489    -177.468     254.961
  H      310.324    -179.647     253.965
  H      309.612    -180.497     255.358
  P      312.956    -178.872     254.426
  C      311.960    -178.474     252.043
  O      312.091    -179.332     253.159
  O      312.830    -180.080     255.476
  O      314.360    -178.437     254.146
  H      311.963    -180.083     255.925
  H      312.861    -177.876     251.885
  H      311.103    -177.807     252.197
  H      311.776    -179.085     251.157
  H      306.204    -182.978     255.502
  H      305.425    -182.062     254.234
  H      306.200    -181.232     255.561

 3  4  5  6  7  8  9  10  11  12  13  23  28  29  30  31  32 0
 6-311+G(2d,p)
 ****
 33  34 0
 6-311+G(2d,p)
 ****
 1  2  14  15  16  17  18  19  20  21  22  24  25  26 0
 3-21G
 ****
 27  35  36  37  38  39  40  41  42  43  44  45 0
 3-21G
 ****


