%nproc=1
%NoSave
%Mem=1900MB
#P OB98/GEN NMR

erre ene a

0 1
  C      269.514    -943.562    1021.929
  O      270.215    -942.795    1020.963
  H      268.493    -943.731    1021.558
  H      269.461    -943.017    1022.872
  H      269.999    -944.533    1022.075
  P      271.788    -942.545    1021.169
  C      271.513    -940.552    1019.537
  O      272.066    -941.014    1020.776
  C      271.541    -939.028    1019.495
  O      270.620    -938.501    1020.490
  C      272.893    -938.410    1019.812
  O      273.776    -938.526    1018.734
  C      272.483    -936.986    1020.175
  O      272.301    -936.199    1018.976
  C      271.127    -937.211    1020.890
  N      271.267    -937.115    1022.333
  C      271.015    -935.881    1022.911
  O      270.666    -934.873    1022.264
  N      271.214    -935.786    1024.277
  C      271.763    -936.764    1025.047
  O      272.154    -936.557    1026.194
  C      271.951    -938.056    1024.420
  C      271.719    -938.183    1023.096
  O      272.691    -943.541    1020.528
  O      271.956    -942.531    1022.764
  H      272.326    -943.398    1023.041
  H      271.605    -936.653    1018.461
  H      271.052    -934.876    1024.685
  H      272.325    -938.883    1025.026
  H      271.880    -939.128    1022.602
  H      270.393    -936.462    1020.543
  H      273.227    -936.487    1020.783
  H      273.311    -938.882    1020.720
  H      271.179    -938.708    1018.494
  H      270.483    -940.919    1019.459
  H      272.097    -940.978    1018.711
  P      274.857    -939.733    1018.701
  C      276.191    -938.757    1016.715
  O      276.222    -939.151    1018.096
  O      274.393    -941.013    1018.078
  O      275.230    -939.953    1020.256
  H      275.166    -940.911    1020.451
  H      277.153    -938.387    1016.428
  H      275.459    -937.989    1016.580
  H      275.938    -939.602    1016.109

 6  7  8  9  10  11  12  13  14  15  16  27  31  32  33  34  35 0
 6-311+G(2d,p)
 ****
 36  37 0
 6-311+G(2d,p)
 ****
 1  2  3  4  5  17  18  19  20  21  22  23  24  25 0
 3-21G
 ****
 26  28  29  30  38  39  40  41  42  43  44  45 0
 3-21G
 ****


