%nproc=1
%NoSave
%Mem=1900MB
#P OB98/GEN NMR

erre ene a

0 1
  C     -857.057    1067.194     -62.225
  O     -857.428    1067.379     -60.861
  P     -856.421    1067.003     -59.668
  C     -857.115    1064.684     -58.826
  O     -856.286    1065.409     -59.726
  C     -856.297    1063.597     -58.116
  O     -855.275    1063.121     -59.020
  C     -855.541    1064.046     -56.870
  O     -856.319    1064.039     -55.678
  C     -854.478    1062.959     -56.777
  O     -855.042    1061.771     -56.207
  C     -854.115    1062.739     -58.247
  N     -849.053    1062.609     -59.014
  C     -849.932    1061.657     -58.624
  N     -851.266    1061.778     -58.407
  C     -851.674    1063.016     -58.712
  C     -850.915    1064.087     -59.136
  C     -849.536    1063.848     -59.299
  N     -848.646    1064.818     -59.718
  N     -851.688    1065.220     -59.319
  C     -852.908    1064.823     -59.032
  N     -852.955    1063.499     -58.681
  O     -856.798    1067.584     -58.341
  O     -854.995    1067.501     -60.195
  H     -855.422    1062.012     -55.341
  H     -854.361    1067.574     -59.430
  H     -849.508    1060.669     -58.431
  H     -853.789    1065.452     -59.069
  H     -853.916    1061.679     -58.470
  H     -853.628    1063.246     -56.146
  H     -855.053    1065.013     -57.026
  H     -856.963    1062.758     -57.892
  H     -857.906    1064.196     -59.402
  H     -847.688    1064.506     -59.923
  H     -849.007    1065.685     -60.079
  H     -857.578    1065.352     -58.103
  P     -855.693    1064.807     -54.394
  C     -853.971    1063.148     -53.349
  O     -854.214    1064.233     -54.221
  O     -856.560    1064.770     -53.199
  O     -855.451    1066.289     -54.962
  H     -854.764    1066.366     -55.643
  H     -852.933    1062.805     -53.491
  H     -854.644    1062.310     -53.560
  H     -854.089    1063.464     -52.308
  H     -857.862    1067.503     -62.859
  H     -856.842    1066.160     -62.399
  H     -856.188    1067.780     -62.441

 3  4  5  6  7  8  9  10  11  12  22  25  29  30  31  32 0
 6-311+G(2d,p)
 ****
 33  36  37 0
 6-311+G(2d,p)
 ****
 1  2  13  14  15  16  17  18  19  20  21  23  24  26 0
 3-21G
 ****
 27  28  34  35  38  39  40  41  42  43  44  45  46  47  48 0
 3-21G
 ****


