%nproc=1
%NoSave
%Mem=1900MB
#P OB98/GEN NMR

erre ene a

0 1
  C      385.302     251.443    -449.945
  O      386.653     251.401    -449.463
  P      387.499     250.062    -449.706
  C      386.438     248.751    -447.717
  O      386.650     248.830    -449.118
  C      385.317     247.769    -447.396
  O      385.423     246.559    -448.182
  C      385.283     247.323    -445.934
  O      384.623     248.258    -445.108
  C      384.464     246.045    -446.040
  O      383.057     246.379    -446.107
  C      384.939     245.457    -447.379
  N      386.068     240.532    -447.649
  C      384.878     241.176    -447.895
  N      383.840     240.408    -448.287
  N      384.724     242.474    -447.779
  C      385.852     243.117    -447.400
  C      387.087     242.586    -447.120
  C      387.244     241.144    -447.251
  O      388.279     240.510    -447.018
  N      387.986     243.551    -446.761
  C      387.303     244.678    -446.847
  N      385.993     244.465    -447.208
  O      388.697     250.204    -448.651
  O      388.001     249.900    -451.104
  H      382.925     246.853    -446.951
  H      389.477     249.715    -448.980
  H      386.137     239.522    -447.750
  H      387.703     245.666    -446.639
  H      384.129     244.968    -447.933
  H      384.589     245.391    -445.176
  H      383.903     239.418    -448.440
  H      386.303     247.090    -445.577
  H      382.961     240.881    -448.507
  H      384.355     248.257    -447.636
  H      386.198     249.747    -447.315
  H      387.381     248.461    -447.231
  P      385.512     249.111    -444.073
  C      385.586     247.233    -442.290
  O      386.309     248.042    -443.185
  O      384.416     249.711    -443.070
  O      386.335     250.193    -444.709
  H      384.711     250.582    -442.738
  H      386.253     246.452    -441.893
  H      384.744     246.733    -442.795
  H      385.203     247.830    -441.451
  H      384.869     252.393    -449.711
  H      384.732     250.667    -449.478
  H      385.297     251.301    -451.005

 3  4  5  6  7  8  9  10  11  12  23  26  30  31 0
 6-311+G(2d,p)
 ****
 33  35  36  37  38 0
 6-311+G(2d,p)
 ****
 1  2  13  14  15  16  17  18  19  20  21  22  24  25 0
 3-21G
 ****
 27  28  29  32  34  39  40  41  42  43  44  45  46  47  48  49 0
 3-21G
 ****


