%nproc=1
%NoSave
%Mem=1900MB
#P OB98/GEN NMR

erre ene a

0 1
  C      -44.183     -21.466      22.726
  O      -43.212     -22.402      23.149
  H      -45.160     -21.777      23.103
  H      -44.220     -21.434      21.635
  H      -43.952     -20.472      23.118
  P      -41.683     -22.075      22.800
  C      -40.334     -22.373      20.593
  O      -41.348     -22.876      21.450
  C      -39.765     -23.509      19.742
  O      -39.121     -24.469      20.622
  C      -40.834     -24.263      18.943
  O      -40.290     -24.640      17.675
  C      -41.087     -25.501      19.783
  O      -41.621     -26.594      19.048
  C      -39.684     -25.767      20.340
  N      -39.706     -26.595      21.544
  C      -39.415     -27.947      21.396
  O      -39.070     -28.479      20.343
  N      -39.536     -28.705      22.533
  C      -39.931     -28.261      23.760
  O      -40.042     -28.993      24.735
  C      -40.233     -26.824      23.851
  C      -40.110     -26.071      22.756
  O      -40.868     -22.884      23.915
  O      -41.324     -20.628      22.764
  H      -40.718     -22.324      24.701
  H      -41.814     -27.317      19.679
  H      -39.327     -29.687      22.444
  H      -40.558     -26.437      24.807
  H      -40.339     -25.011      22.786
  H      -39.054     -26.239      19.577
  H      -41.786     -25.267      20.594
  H      -41.744     -23.680      18.794
  H      -38.989     -23.104      19.081
  H      -39.533     -21.941      21.200
  H      -40.757     -21.594      19.951
  P      -40.837     -23.868      16.377
  C      -42.700     -24.398      14.622
  O      -42.110     -24.707      15.872
  O      -39.695     -24.196      15.310
  O      -41.081     -22.417      16.623
  H      -39.330     -25.093      15.395
  H      -43.529     -25.051      14.448
  H      -41.976     -24.526      13.845
  H      -43.040     -23.384      14.629

 6  7  8  9  10  11  12  13  14  15  16  27  31  32  33  34  35 0
 6-311+G(2d,p)
 ****
 36  37 0
 6-311+G(2d,p)
 ****
 1  2  3  4  5  17  18  19  20  21  22  23  24  25 0
 3-21G
 ****
 26  28  29  30  38  39  40  41  42  43  44  45 0
 3-21G
 ****


