%nproc=1
%NoSave
%Mem=1900MB
#P OB98/GEN NMR

erre ene a

0 1
  C      387.524      30.066     252.035
  O      386.249      30.305     252.596
  P      385.256      29.085     252.898
  C      383.998      28.880     250.668
  O      384.982      28.306     251.527
  C      383.188      27.787     249.975
  O      384.017      27.045     249.055
  C      382.612      26.743     250.920
  O      381.521      27.249     251.668
  C      382.260      25.628     249.942
  O      381.013      25.895     249.290
  C      383.426      25.724     248.933
  N      384.419      24.677     249.132
  C      384.200      23.488     248.433
  O      383.179      23.331     247.765
  N      385.151      22.495     248.518
  C      386.158      22.633     249.328
  N      387.092      21.646     249.324
  C      386.329      23.809     250.200
  C      385.448      24.794     250.037
  O      384.033      29.437     253.678
  O      386.165      28.042     253.716
  H      385.687      27.774     254.522
  H      380.312      25.709     249.943
  H      387.151      23.846     250.908
  H      385.514      25.708     250.618
  H      383.044      25.660     247.911
  H      382.170      24.655     250.440
  H      383.394      26.397     251.606
  H      382.385      28.274     249.402
  H      386.948      20.865     248.696
  H      384.503      29.499     249.919
  H      388.048      21.795     249.652
  H      383.339      29.528     251.259
  P      381.464      26.858     253.221
  C      380.207      24.599     253.105
  O      381.441      25.260     253.316
  O      379.985      27.291     253.658
  O      382.495      27.533     254.070
  H      379.996      27.636     254.568
  H      380.412      23.554     252.855
  H      379.641      25.053     252.283
  H      379.617      24.635     254.023
  H      388.038      30.996     251.907
  H      387.411      29.587     251.085
  H      388.088      29.434     252.688

 3  4  5  6  7  8  9  10  11  12  13  24  27  28  29  30  32 0
 6-311+G(2d,p)
 ****
 34  35 0
 6-311+G(2d,p)
 ****
 1  2  14  15  16  17  18  19  20  21  22  23  25  26 0
 3-21G
 ****
 31  33  36  37  38  39  40  41  42  43  44  45  46 0
 3-21G
 ****


