%nproc=1
%NoSave
%Mem=1900MB
#P OB98/GEN NMR

erre ene a

0 1
  C        1.173    -795.077     981.668
  O        2.239    -794.665     980.804
  P        3.748    -794.725     981.366
  C        4.612    -796.685     979.874
  O        4.298    -796.223     981.183
  C        6.082    -797.116     979.796
  O        6.321    -798.316     980.567
  C        6.537    -797.449     978.391
  O        6.889    -796.269     977.670
  C        7.776    -798.276     978.675
  O        8.890    -797.417     978.991
  C        7.363    -799.079     979.906
  N        8.222    -804.115     980.318
  C        8.955    -803.040     980.694
  N        8.666    -801.730     980.527
  C        7.480    -801.575     979.930
  C        6.615    -802.579     979.488
  C        7.034    -803.907     979.704
  N        6.288    -805.002     979.324
  N        5.503    -802.030     978.911
  C        5.661    -800.738     979.007
  N        6.847    -800.405     979.602
  O        3.539    -794.592     982.947
  O        4.623    -793.645     980.825
  H        9.150    -796.966     978.161
  H        4.287    -794.102     983.332
  H        9.908    -803.257     981.189
  H        4.944    -799.991     978.663
  H        8.182    -799.206     980.622
  H        8.086    -798.888     977.810
  H        5.786    -798.046     977.855
  H        6.694    -796.311     980.206
  H        4.421    -795.888     979.151
  H        6.632    -805.915     979.544
  H        5.383    -804.844     978.889
  H        3.937    -797.506     979.626
  P        5.776    -795.650     976.685
  C        5.062    -793.953     978.530
  O        4.670    -794.994     977.651
  O        5.045    -796.956     976.098
  O        6.319    -794.769     975.608
  H        4.715    -796.770     975.203
  H        4.168    -793.433     978.874
  H        5.715    -793.243     978.033
  H        5.575    -794.380     979.398
  H        0.240    -794.980     981.154
  H        1.164    -794.461     982.543
  H        1.319    -796.098     981.953

 3  4  5  6  7  8  9  10  11  12  22  25  29  30  31  32 0
 6-311+G(2d,p)
 ****
 33  36  37 0
 6-311+G(2d,p)
 ****
 1  2  13  14  15  16  17  18  19  20  21  23  24  26 0
 3-21G
 ****
 27  28  34  35  38  39  40  41  42  43  44  45  46  47  48 0
 3-21G
 ****


