%nproc=1
%NoSave
%Mem=1900MB
#P OB98/GEN NMR

erre ene a

0 1
  C     -132.851    -612.233    -390.534
  O     -133.424    -613.515    -390.423
  H     -133.645    -611.509    -390.746
  H     -132.131    -612.213    -391.360
  H     -132.355    -611.951    -389.601
  P     -132.415    -614.731    -390.131
  C     -132.784    -615.107    -387.590
  O     -131.945    -614.571    -388.607
  C     -132.518    -614.407    -386.254
  O     -133.025    -613.046    -386.272
  C     -133.142    -615.091    -385.053
  O     -132.339    -616.160    -384.589
  C     -133.217    -613.941    -384.047
  O     -131.945    -613.727    -383.407
  C     -133.579    -612.755    -384.962
  N     -137.283    -609.568    -383.699
  C     -135.921    -609.475    -383.476
  N     -135.490    -608.418    -382.764
  N     -135.061    -610.366    -383.901
  C     -135.639    -611.396    -384.566
  C     -136.968    -611.579    -384.865
  C     -137.908    -610.572    -384.410
  O     -139.116    -610.558    -384.633
  N     -137.170    -612.744    -385.573
  C     -135.964    -613.274    -385.678
  N     -135.009    -612.505    -385.062
  O     -131.103    -614.335    -390.966
  O     -132.914    -616.084    -390.515
  H     -131.592    -614.571    -383.095
  H     -130.656    -615.148    -391.258
  H     -137.891    -608.837    -383.361
  H     -135.736    -614.209    -386.174
  H     -133.114    -611.820    -384.612
  H     -133.944    -614.138    -383.264
  H     -136.107    -607.903    -382.149
  H     -134.168    -615.439    -385.288
  H     -134.495    -608.358    -382.583
  H     -131.423    -614.341    -386.134
  H     -132.587    -616.171    -387.484
  H     -133.832    -614.961    -387.886
  P     -132.952    -617.650    -384.685
  C     -131.682    -618.702    -386.696
  O     -132.868    -618.072    -386.229
  O     -134.520    -617.427    -384.450
  O     -132.365    -618.624    -383.715
  H     -134.949    -618.272    -384.212
  H     -131.781    -618.920    -387.739
  H     -131.525    -619.612    -386.155
  H     -130.848    -618.049    -386.545

 6  7  8  9  10  11  12  13  14  15  26  29  33  34 0
 6-311+G(2d,p)
 ****
 36  38  39  40  41 0
 6-311+G(2d,p)
 ****
 1  2  3  4  5  16  17  18  19  20  21  22  23  24  25 0
 3-21G
 ****
 27  28  30  31  32  35  37  42  43  44  45  46  47 0
 3-21G
 ****
 48  49 0
 3-21G
 ****


