%nproc=1
%NoSave
%Mem=1900MB
#P OB98/GEN NMR

erre ene a

0 1
  C     2018.779     159.701    1545.910
  O     2019.572     158.579    1546.294
  P     2020.522     157.912    1545.201
  C     2022.718     158.093    1546.678
  O     2022.014     158.474    1545.499
  C     2023.974     157.345    1546.292
  O     2024.869     158.196    1545.527
  C     2024.830     156.847    1547.494
  O     2024.269     155.697    1548.090
  C     2026.176     156.632    1546.828
  O     2026.199     155.364    1546.120
  C     2026.239     157.783    1545.811
  N     2027.038     158.914    1546.255
  C     2028.405     158.874    1545.950
  O     2028.907     157.897    1545.323
  N     2029.164     159.910    1546.387
  C     2028.704     160.973    1547.166
  O     2029.445     161.851    1547.535
  C     2027.289     160.938    1547.467
  C     2026.503     159.970    1547.027
  O     2020.057     158.716    1543.877
  O     2020.413     156.426    1545.140
  H     2019.691     159.602    1544.081
  H     2026.147     154.654    1546.786
  H     2030.132     159.896    1546.177
  H     2026.856     161.776    1548.057
  H     2025.467     159.915    1547.247
  H     2026.642     157.446    1544.820
  H     2027.012     156.652    1547.531
  H     2024.919     157.675    1548.226
  H     2023.716     156.467    1545.647
  H     2022.081     157.423    1547.302
  H     2022.972     158.988    1547.255
  P     2025.097     155.076    1549.342
  C     2024.353     157.009    1550.948
  O     2025.395     156.349    1550.346
  O     2026.498     154.721    1548.652
  O     2024.369     153.910    1550.006
  H     2026.807     155.400    1548.057
  H     2024.791     157.534    1551.813
  H     2023.572     156.328    1551.303
  H     2023.918     157.741    1550.270
  H     2018.201     160.032    1546.747
  H     2018.123     159.418    1545.113
  H     2019.418     160.494    1545.582

 3  4  5  6  7  8  9  10  11  12  13  24  28  29  30  31  32 0
 6-311+G(2d,p)
 ****
 33  34 0
 6-311+G(2d,p)
 ****
 1  2  14  15  16  17  18  19  20  21  22  23  25  26  27 0
 3-21G
 ****
 35  36  37  38  39  40  41  42  43  44  45 0
 3-21G
 ****


