%nproc=1
%NoSave
%Mem=1900MB
#P OB98/GEN NMR

erre ene a

0 1
  C        5.965     324.740     433.528
  O        6.397     325.496     432.409
  H        4.987     325.109     433.844
  H        6.664     324.847     434.363
  H        5.872     323.690     433.253
  P        7.920     325.337     431.934
  C        8.602     327.332     433.426
  O        8.572     326.798     432.104
  C        8.783     328.849     433.413
  O        8.794     329.372     434.759
  C       10.096     329.313     432.799
  O       10.224     329.070     431.416
  C       10.199     330.738     433.311
  O        9.439     331.656     432.531
  C        9.566     330.601     434.728
  N       10.565     330.637     435.783
  C       11.400     331.747     435.794
  O       11.347     332.649     434.952
  N       12.349     331.779     436.782
  C       12.558     330.803     437.719
  O       13.437     330.882     438.572
  C       11.671     329.636     437.643
  C       10.721     329.607     436.694
  O        8.114     324.742     430.569
  O        8.607     324.496     433.106
  H        9.597     332.545     432.895
  H        9.478     324.124     432.822
  H       12.959     332.583     436.812
  H       11.814     328.842     438.361
  H       10.048     328.759     436.615
  H        8.846     331.414     434.905
  H       11.229     331.100     433.331
  H       10.916     328.747     433.275
  H        7.923     329.293     432.890
  H        9.449     326.869     433.954
  H        7.676     327.060     433.945
  P       11.390     328.188     430.771
  C       13.091     330.162     431.016
  O       12.504     329.181     430.173
  O       10.972     327.020     429.945
  O       12.128     327.611     432.091
  H       12.452     326.712     431.872
  H       13.806     330.730     430.458
  H       13.580     329.680     431.837
  H       12.329     330.814     431.388

 6  7  8  9  10  11  12  13  14  15  16  26  31  32  33  34  35 0
 6-311+G(2d,p)
 ****
 36  37 0
 6-311+G(2d,p)
 ****
 1  2  3  4  5  17  18  19  20  21  22  23  24  25 0
 3-21G
 ****
 27  28  29  30  38  39  40  41  42  43  44  45 0
 3-21G
 ****


