%nproc=1
%NoSave
%Mem=1900MB
#P OB98/GEN NMR

erre ene a

0 1
  C     -102.326     268.628     -80.407
  O     -102.210     267.725     -79.327
  H     -101.372     268.653     -80.944
  H     -102.542     269.632     -80.028
  H     -103.111     268.319     -81.099
  P     -103.538     267.251     -78.570
  C     -103.709     265.681     -76.530
  O     -103.115     266.847     -77.079
  C     -103.003     265.263     -75.234
  O     -101.716     264.678     -75.569
  C     -102.718     266.469     -74.331
  O     -102.669     266.116     -72.953
  C     -101.329     266.909     -74.782
  O     -100.635     267.661     -73.792
  C     -100.683     265.561     -75.106
  N      -96.143     267.540     -76.329
  C      -96.978     267.855     -75.274
  N      -96.542     268.823     -74.431
  N      -98.140     267.290     -75.074
  C      -98.478     266.395     -76.034
  C      -97.749     266.018     -77.137
  C      -96.447     266.623     -77.331
  O      -95.683     266.399     -78.259
  N      -98.426     265.085     -77.889
  C      -99.559     264.904     -77.248
  N      -99.632     265.658     -76.101
  O     -103.862     265.827     -79.235
  O     -104.708     268.183     -78.672
  H     -101.119     268.497     -73.662
  H     -104.805     265.607     -79.121
  H      -95.247     267.986     -76.422
  H     -100.349     264.239     -77.557
  H     -100.244     265.118     -74.199
  H     -101.442     267.550     -75.661
  H      -95.755     269.411     -74.662
  H     -103.441     267.278     -74.466
  H      -97.256     269.276     -73.853
  H     -103.583     264.487     -74.719
  H     -103.632     264.893     -77.283
  H     -104.773     265.847     -76.347
  P     -103.827     266.649     -71.981
  C     -105.202     265.651     -69.954
  O     -104.087     265.591     -70.813
  O     -105.145     266.570     -72.877
  O     -103.591     268.034     -71.447
  H     -105.507     267.461     -73.032
  H     -105.159     264.840     -69.257
  H     -106.101     265.579     -70.530
  H     -105.193     266.579     -69.422

 6  7  8  9  10  11  12  13  14  15  26  29  33  34 0
 6-311+G(2d,p)
 ****
 36  38  39  40  41 0
 6-311+G(2d,p)
 ****
 1  2  3  4  5  16  17  18  19  20  21  22  23  24  25 0
 3-21G
 ****
 27  28  30  31  32  35  37  42  43  44  45  46  47 0
 3-21G
 ****
 48  49 0
 3-21G
 ****


