%nproc=1
%NoSave
%Mem=1900MB
#P OB98/GEN NMR

erre ene a

0 1
  C     -129.010    -688.091     681.311
  O     -127.853    -688.899     681.309
  H     -129.375    -687.993     682.337
  H     -129.789    -688.568     680.708
  H     -128.793    -687.095     680.915
  P     -126.928    -688.861     679.999
  C     -126.103    -686.465     680.564
  O     -126.741    -687.310     679.617
  C     -124.778    -685.945     680.007
  O     -125.046    -685.217     678.772
  C     -124.027    -684.991     680.953
  O     -122.618    -685.223     680.822
  C     -124.340    -683.623     680.374
  O     -123.370    -682.650     680.734
  C     -124.372    -683.950     678.885
  N     -123.781    -679.282     677.130
  C     -122.863    -680.151     677.693
  N     -121.610    -679.692     677.877
  N     -123.160    -681.374     678.052
  C     -124.446    -681.715     677.798
  C     -125.445    -680.950     677.249
  C     -125.113    -679.591     676.873
  O     -125.883    -678.766     676.390
  N     -126.631    -681.638     677.215
  C     -126.353    -682.816     677.756
  N     -125.039    -682.907     678.125
  O     -127.915    -689.412     678.863
  O     -125.672    -689.657     680.079
  H     -123.167    -682.754     681.687
  H     -127.778    -690.371     678.744
  H     -123.506    -678.349     676.884
  H     -127.063    -683.613     677.921
  H     -123.365    -684.058     678.455
  H     -125.322    -683.284     680.719
  H     -121.294    -678.779     677.598
  H     -124.322    -685.087     682.005
  H     -120.917    -680.334     678.250
  H     -124.147    -686.801     679.741
  H     -125.906    -687.035     681.477
  H     -126.767    -685.630     680.806
  P     -121.885    -686.087     681.961
  C     -122.216    -688.447     680.910
  O     -122.526    -687.558     681.975
  O     -122.432    -685.435     683.317
  O     -120.396    -686.038     681.889
  H     -121.740    -685.462     684.001
  H     -122.718    -689.379     681.066
  H     -121.159    -688.612     680.879
  H     -122.538    -688.019     679.983

 6  7  8  9  10  11  12  13  14  15  26  29  33  34 0
 6-311+G(2d,p)
 ****
 36  38  39  40  41 0
 6-311+G(2d,p)
 ****
 1  2  3  4  5  16  17  18  19  20  21  22  23  24  25 0
 3-21G
 ****
 27  28  30  31  32  35  37  42  43  44  45  46  47 0
 3-21G
 ****
 48  49 0
 3-21G
 ****


