%nproc=1
%NoSave
%Mem=1900MB
#P OB98/GEN NMR

erre ene a

0 1
  C      -65.916       4.377      78.952
  O      -65.427       3.542      79.987
  P      -65.680       1.964      79.957
  C      -64.666      -0.090      81.241
  O      -64.550       1.256      80.832
  C      -63.820      -0.300      82.503
  O      -62.417      -0.213      82.182
  C      -64.128       0.752      83.566
  O      -65.097       0.268      84.483
  C      -62.769       0.994      84.195
  O      -62.474      -0.026      85.167
  C      -61.831       0.857      82.972
  N      -61.658       2.030      82.094
  C      -60.936       3.129      82.548
  O      -60.393       3.183      83.647
  N      -60.877       4.199      81.689
  C      -61.420       4.246      80.437
  O      -61.570       5.273      79.785
  C      -61.924       2.972      79.918
  C      -62.040       1.947      80.762
  O      -65.291       1.565      78.458
  O      -67.063       1.528      80.312
  H      -63.075       0.113      85.920
  H      -66.090       1.485      77.904
  H      -60.475       5.050      82.067
  H      -62.236       2.926      78.883
  H      -62.449       1.002      80.409
  H      -60.831       0.534      83.280
  H      -62.747       1.940      84.732
  H      -64.466       1.682      83.093
  H      -64.014      -1.306      82.896
  H      -64.328      -0.756      80.439
  H      -65.714      -0.332      81.442
  P      -66.039       1.305      85.257
  C      -68.444       1.212      86.139
  O      -67.490       0.621      85.279
  O      -66.000       2.710      84.756
  O      -65.531       1.200      86.773
  H      -64.909       1.931      86.966
  H      -69.422       0.775      85.930
  H      -68.492       2.293      85.975
  H      -68.179       1.006      87.180
  H      -65.645       5.392      79.154
  H      -66.982       4.296      78.902
  H      -65.491       4.074      78.018

 3  4  5  6  7  8  9  10  11  12  13  23  28  29  30  31  32 0
 6-311+G(2d,p)
 ****
 33  34 0
 6-311+G(2d,p)
 ****
 1  2  14  15  16  17  18  19  20  21  22  24  25  26  27 0
 3-21G
 ****
 35  36  37  38  39  40  41  42  43  44  45 0
 3-21G
 ****


