%nproc=1
%NoSave
%Mem=1900MB
#P OB98/GEN NMR

erre ene a

0 1
  C     -923.627     346.047     341.476
  O     -922.379     345.507     341.863
  H     -923.946     345.570     340.548
  H     -923.533     347.125     341.307
  H     -924.379     345.856     342.249
  P     -921.741     346.062     343.230
  C     -922.060     343.843     344.547
  O     -922.410     345.219     344.414
  C     -921.284     343.626     345.844
  O     -922.088     344.057     346.969
  C     -920.941     342.169     346.120
  O     -919.827     341.724     345.365
  C     -920.677     342.215     347.616
  O     -919.343     342.649     347.902
  C     -921.693     343.257     348.105
  N     -923.639     341.494     352.481
  C     -922.483     342.133     352.200
  N     -922.046     342.581     351.008
  C     -922.952     342.339     350.047
  C     -924.177     341.704     350.184
  C     -924.518     341.269     351.473
  N     -925.679     340.593     351.751
  N     -924.806     341.597     348.959
  C     -923.985     342.178     348.102
  N     -922.853     342.640     348.710
  O     -922.408     347.512     343.368
  O     -920.253     346.130     343.252
  H     -919.325     343.612     347.726
  H     -921.774     348.192     343.072
  H     -921.824     342.295     353.048
  H     -924.166     342.272     347.036
  H     -921.259     343.937     348.852
  H     -920.813     341.226     348.067
  H     -921.814     341.533     345.931
  H     -920.382     344.250     345.817
  H     -921.435     343.542     343.694
  H     -922.981     343.243     344.536
  H     -925.834     340.248     352.687
  H     -926.285     340.315     350.989
  P     -919.639     340.138     345.171
  C     -921.518     339.691     343.421
  O     -921.066     339.538     344.759
  O     -919.417     339.599     346.667
  O     -918.516     339.754     344.279
  H     -918.783     338.860     346.659
  H     -922.481     339.237     343.316
  H     -920.826     339.219     342.755
  H     -921.587     340.732     343.185

 6  7  8  9  10  11  12  13  14  15  25  28  32  33  34  35 0
 6-311+G(2d,p)
 ****
 36  37  40 0
 6-311+G(2d,p)
 ****
 1  2  3  4  5  16  17  18  19  20  21  22  23  24 0
 3-21G
 ****
 26  27  29  30  31  38  39 41  42  43  44  45  46  47  48 0
 3-21G
 ****


