%nproc=1
%NoSave
%Mem=1900MB
#P OB98/GEN NMR

erre ene a

0 1
  C     -106.382     169.605    -159.528
  O     -106.430     170.837    -158.826
  P     -105.062     171.383    -158.197
  C     -106.271     173.235    -156.794
  O     -105.433     172.086    -156.793
  C     -106.824     173.480    -155.382
  O     -107.915     172.558    -155.096
  C     -105.798     173.239    -154.280
  O     -104.914     174.351    -154.157
  C     -106.695     173.040    -153.057
  O     -107.089     174.297    -152.502
  C     -107.901     172.296    -153.679
  N     -107.899     170.867    -153.385
  C     -108.400     170.502    -152.127
  O     -108.792     171.315    -151.300
  N     -108.394     169.162    -151.848
  C     -107.884     168.174    -152.648
  O     -107.843     166.987    -152.332
  C     -107.330     168.627    -153.949
  C     -107.365     169.929    -154.253
  O     -104.673     172.618    -159.152
  O     -103.974     170.375    -158.109
  H     -107.601     174.766    -153.193
  H     -103.696     172.670    -159.234
  H     -108.765     168.876    -150.963
  H     -106.939     167.858    -154.618
  H     -106.959     170.276    -155.195
  H     -108.842     172.722    -153.278
  H     -106.180     172.473    -152.275
  H     -105.243     172.320    -154.484
  H     -107.226     174.507    -155.330
  H     -107.106     173.061    -157.497
  H     -105.695     174.107    -157.134
  P     -103.563     174.300    -155.045
  C     -102.673     176.472    -153.857
  O     -102.473     175.088    -154.167
  O     -103.962     175.311    -156.227
  O     -103.206     172.933    -155.485
  H     -104.551     176.035    -155.928
  H     -103.718     176.699    -153.687
  H     -102.280     177.078    -154.669
  H     -102.107     176.691    -152.935
  H     -107.359     169.363    -159.891
  H     -106.045     168.832    -158.869
  H     -105.706     169.691    -160.353

 3  4  5  6  7  8  9  10  11  12  13  23  28  29  30  31  32 0
 6-311+G(2d,p)
 ****
 33  34 0
 6-311+G(2d,p)
 ****
 1  2  14  15  16  17  18  19  20  21  22  24  25  26 0
 3-21G
 ****
 27  35  36  37  38  39  40  41  42  43  44  45 0
 3-21G
 ****


