%nproc=1
%NoSave
%Mem=1900MB
#P OB98/GEN NMR

erre ene a

0 1
  C       39.421    -263.791      31.469
  O       39.128    -264.923      32.292
  P       37.593    -265.160      32.705
  C       37.940    -264.563      35.227
  O       37.335    -264.228      33.988
  C       37.362    -263.706      36.362
  O       37.870    -264.183      37.643
  C       37.689    -262.212      36.255
  O       36.532    -261.500      36.720
  C       38.838    -262.043      37.232
  O       38.974    -260.697      37.668
  C       38.431    -263.039      38.324
  N       39.546    -263.420      39.186
  C       39.473    -263.031      40.519
  O       38.566    -262.327      40.960
  N       40.507    -263.438      41.319
  C       41.619    -264.113      40.907
  O       42.515    -264.455      41.669
  C       41.692    -264.400      39.465
  C       40.670    -264.042      38.685
  O       37.649    -266.642      33.293
  O       36.646    -264.959      31.566
  H       38.464    -266.835      33.785
  H       38.144    -260.419      38.110
  H       40.458    -263.192      42.295
  H       42.588    -264.882      39.092
  H       40.704    -264.218      37.619
  H       37.638    -262.614      38.952
  H       39.777    -262.350      36.759
  H       37.929    -261.900      35.237
  H       36.275    -263.851      36.372
  H       39.018    -264.392      35.171
  H       37.792    -265.631      35.423
  P       35.796    -260.497      35.698
  C       36.825    -258.281      36.639
  O       36.718    -259.196      35.570
  O       34.589    -259.990      36.628
  O       35.322    -261.120      34.429
  H       34.877    -259.731      37.520
  H       37.665    -257.608      36.445
  H       37.003    -258.795      37.586
  H       35.910    -257.680      36.708
  H       40.472    -263.755      31.273
  H       39.122    -262.896      31.974
  H       38.888    -263.875      30.545

 3  4  5  6  7  8  9  10  11  12  13  24  28  29  30  31  32 0
 6-311+G(2d,p)
 ****
 33  34 0
 6-311+G(2d,p)
 ****
 1  2  14  15  16  17  18  19  20  21  22  23  25  26  27 0
 3-21G
 ****
 35  36  37  38  39  40  41  42  43  44  45 0
 3-21G
 ****


