%nproc=1
%NoSave
%Mem=1900MB
#P OB98/GEN NMR

erre ene a

0 1
  C     -814.770    1190.119    -139.952
  O     -815.071    1191.414    -140.435
  H     -813.877    1189.756    -140.457
  H     -815.596    1189.433    -140.167
  H     -814.580    1190.156    -138.881
  P     -816.387    1192.117    -139.839
  C     -817.979    1190.901    -141.487
  O     -817.567    1191.063    -140.139
  C     -819.420    1190.398    -141.558
  O     -819.568    1189.211    -140.750
  C     -820.453    1191.381    -141.047
  O     -820.796    1192.314    -142.068
  C     -821.615    1190.455    -140.733
  O     -822.333    1190.142    -141.941
  C     -820.907    1189.198    -140.203
  N     -822.825    1186.942    -136.004
  C     -823.251    1186.952    -137.292
  N     -822.725    1187.620    -138.329
  C     -821.622    1188.314    -137.974
  C     -821.080    1188.393    -136.696
  C     -821.712    1187.663    -135.684
  N     -821.277    1187.642    -134.380
  N     -819.965    1189.209    -136.699
  C     -819.812    1189.564    -137.954
  N     -820.815    1189.088    -138.753
  O     -816.623    1193.520    -140.278
  O     -816.149    1191.923    -138.268
  H     -821.673    1189.827    -142.585
  H     -815.780    1191.041    -138.082
  H     -824.134    1186.363    -137.498
  H     -818.985    1190.156    -138.334
  H     -821.392    1188.277    -140.559
  H     -822.337    1190.899    -140.041
  H     -820.137    1191.887    -140.130
  H     -819.626    1190.117    -142.592
  H     -817.307    1190.198    -142.012
  H     -821.898    1187.242    -133.692
  H     -820.542    1188.274    -134.121
  H     -817.894    1191.876    -141.974
  P     -820.505    1193.884    -141.890
  C     -822.826    1194.034    -140.820
  O     -821.446    1194.349    -140.685
  O     -820.622    1194.678    -143.155
  O     -819.044    1193.940    -141.243
  H     -818.656    1194.853    -141.355
  H     -823.358    1194.389    -139.963
  H     -822.944    1192.973    -140.899
  H     -823.214    1194.502    -141.700

 6  7  8  9  10  11  12  13  14  15  25  28  32  33  34  35 0
 6-311+G(2d,p)
 ****
 36  39  40 0
 6-311+G(2d,p)
 ****
 1  2  3  4  5  16  17  18  19  20  21  22  23  24 0
 3-21G
 ****
 26  27  29  30  31  37  38  41  42  43  44  45  46  47 0
 3-21G
 ****
 48 0
 3-21G
 ****


