%nproc=1
%NoSave
%Mem=1900MB
#P OB98/GEN NMR

erre ene a

0 1
  C       35.359      81.748     -85.710
  O       35.227      83.143     -85.891
  H       36.327      81.517     -85.261
  H       34.568      81.402     -85.040
  H       35.261      81.232     -86.669
  P       36.323      83.860     -86.817
  C       37.173      85.504     -85.000
  O       36.513      85.353     -86.250
  C       36.306      86.330     -84.052
  O       35.102      85.577     -83.760
  C       36.982      86.687     -82.716
  O       37.014      88.107     -82.542
  C       36.065      86.092     -81.658
  O       35.895      86.939     -80.522
  C       34.753      85.882     -82.404
  N       31.811      84.600     -78.446
  C       32.124      85.804     -78.974
  N       32.826      86.073     -80.092
  C       33.200      84.934     -80.704
  C       32.935      83.636     -80.299
  C       32.220      83.487     -79.099
  N       31.949      82.261     -78.532
  N       33.490      82.727     -81.181
  C       34.115      83.464     -82.076
  N       33.983      84.803     -81.818
  O       35.547      84.080     -88.201
  O       37.588      83.093     -87.010
  H       35.370      86.434     -79.873
  H       36.107      83.780     -88.942
  H       31.769      86.668     -78.418
  H       34.711      83.085     -82.898
  H       34.131      86.785     -82.409
  H       36.486      85.139     -81.318
  H       37.996      86.280     -82.631
  H       35.998      87.243     -84.576
  H       38.127      86.020     -85.150
  H       31.536      82.252     -77.614
  H       32.346      81.435     -78.957
  H       37.373      84.512     -84.581
  P       38.425      88.749     -82.109
  C       37.798      90.021     -79.926
  O       38.109      90.105     -81.312
  O       39.022      89.270     -83.501
  O       39.343      87.790     -81.429
  H       39.997      89.290     -83.459
  H       37.614      91.002     -79.542
  H       38.621      89.581     -79.402
  H       36.926      89.416     -79.792

 6  7  8  9  10  11  12  13  14  15  25  28  32  33  34  35 0
 6-311+G(2d,p)
 ****
 36  39  40 0
 6-311+G(2d,p)
 ****
 1  2  3  4  5  16  17  18  19  20  21  22  23  24 0
 3-21G
 ****
 26  27  29  30  31  37  38  41  42  43  44  45  46  47  48 0
 3-21G
 ****


