%nproc=1
%NoSave
%Mem=1900MB
#P OB98/GEN NMR

erre ene a

0 1
  C      563.911    -141.386     563.162
  O      562.674    -140.993     562.602
  H      564.608    -141.603     562.349
  H      563.791    -142.286     563.769
  H      564.328    -140.579     563.771
  P      561.449    -140.680     563.586
  C      560.797    -138.347     562.692
  O      561.389    -139.084     563.758
  C      561.884    -137.688     561.839
  O      562.666    -138.745     561.225
  C      561.303    -136.807     560.721
  O      561.833    -135.485     560.718
  C      561.506    -137.652     559.467
  O      561.607    -136.916     558.269
  C      562.745    -138.488     559.810
  N      562.838    -139.741     559.066
  C      563.717    -139.776     557.983
  O      564.434    -138.846     557.625
  N      563.763    -140.963     557.301
  C      563.035    -142.080     557.577
  O      563.124    -143.117     556.930
  C      562.109    -141.975     558.713
  C      562.054    -140.826     559.394
  O      561.436    -141.445     564.867
  O      560.152    -140.993     562.701
  H      561.529    -137.545     557.525
  H      559.783    -141.858     562.959
  H      564.404    -141.004     556.522
  H      561.506    -142.840     558.954
  H      561.383    -140.715     560.243
  H      563.656    -137.919     559.621
  H      560.643    -138.323     559.363
  H      560.229    -136.648     560.870
  H      562.555    -137.122     562.496
  H      560.145    -137.586     563.132
  H      560.194    -139.018     562.071
  P      560.992    -134.167     561.044
  C      562.330    -133.205     563.082
  O      561.158    -133.846     562.602
  O      559.611    -134.132     560.488
  O      561.838    -133.000     560.322
  H      561.189    -132.330     560.027
  H      562.258    -133.076     564.142
  H      562.431    -132.249     562.613
  H      563.185    -133.807     562.853

 6  7  8  9  10  11  12  13  14  15  16  26  31  32  33  34  35 0
 6-311+G(2d,p)
 ****
 36  37 0
 6-311+G(2d,p)
 ****
 1  2  3  4  5  17  18  19  20  21  22  23  24  25 0
 3-21G
 ****
 27  28  29  30  38  39  40  41  42  43  44  45 0
 3-21G
 ****


