%nproc=1
%NoSave
%Mem=1900MB
#P OB98/GEN NMR

erre ene a

0 1
  C      643.119     122.869    -160.369
  O      642.927     121.479    -160.256
  P      642.717     120.575    -161.561
  C      640.264     119.980    -162.084
  O      641.278     120.980    -162.160
  C      639.537     120.070    -160.742
  O      639.350     121.447    -160.343
  C      638.130     119.485    -160.758
  O      638.011     118.093    -160.958
  C      637.557     120.060    -159.473
  O      637.966     119.296    -158.337
  C      638.206     121.469    -159.445
  N      637.254     122.515    -159.800
  C      636.224     122.741    -158.887
  O      636.104     122.110    -157.834
  N      635.313     123.700    -159.238
  C      635.301     124.407    -160.409
  O      634.427     125.221    -160.669
  C      636.398     124.115    -161.340
  C      637.307     123.200    -160.999
  O      642.911     119.104    -161.360
  O      643.716     121.224    -162.626
  H      637.567     118.408    -158.417
  H      643.547     122.165    -162.830
  H      634.558     123.870    -158.596
  H      636.429     124.672    -162.269
  H      638.130     122.960    -161.671
  H      638.602     121.685    -158.444
  H      636.458     120.065    -159.480
  H      637.579     119.950    -161.592
  H      640.158     119.589    -159.986
  H      640.725     118.990    -162.176
  H      639.568     120.110    -162.929
  P      636.609     117.364    -161.258
  C      635.888     115.621    -159.473
  O      635.931     116.984    -159.853
  O      636.613     116.325    -162.327
  O      635.698     118.603    -161.737
  H      635.039     118.281    -162.379
  H      635.354     115.544    -158.520
  H      636.899     115.235    -159.338
  H      635.354     115.029    -160.217
  H      643.240     123.293    -159.394
  H      642.268     123.309    -160.846
  H      643.995     123.062    -160.953

 3  4  5  6  7  8  9  10  11  12  13  23  28  29  30  31  32 0
 6-311+G(2d,p)
 ****
 33  34 0
 6-311+G(2d,p)
 ****
 1  2  14  15  16  17  18  19  20  21  22  24  25  26  27 0
 3-21G
 ****
 35  36  37  38  39  40  41  42  43  44  45 0
 3-21G
 ****


