%nproc=1
%NoSave
%Mem=1900MB
#P OB98/GEN NMR

erre ene a

0 1
  C     -241.433    -610.649     218.366
  O     -240.911    -611.956     218.125
  P     -240.164    -612.224     216.739
  C     -240.781    -614.747     216.699
  O     -239.727    -613.776     216.683
  C     -240.238    -616.141     217.042
  O     -239.163    -616.468     216.102
  C     -239.612    -616.261     218.436
  O     -240.460    -616.624     219.526
  C     -238.643    -617.427     218.235
  O     -239.362    -618.684     218.366
  C     -238.173    -617.259     216.793
  N     -233.220    -617.989     215.682
  C     -234.288    -618.830     215.680
  N     -235.573    -618.553     215.985
  C     -235.716    -617.257     216.318
  C     -234.735    -616.281     216.364
  C     -233.425    -616.688     216.035
  N     -232.340    -615.836     216.042
  N     -235.256    -615.074     216.744
  C     -236.544    -615.316     216.958
  N     -236.869    -616.622     216.695
  O     -239.103    -611.255     216.353
  O     -241.381    -612.191     215.676
  H     -238.714    -619.386     218.164
  H     -241.064    -611.773     214.858
  H     -234.078    -619.854     215.396
  H     -237.257    -614.582     217.286
  H     -238.102    -618.219     216.257
  H     -237.840    -617.448     218.980
  H     -239.043    -615.358     218.699
  H     -241.027    -616.879     216.919
  H     -241.263    -614.771     215.710
  H     -231.440    -616.220     215.830
  H     -232.471    -614.883     216.345
  H     -241.533    -614.405     217.411
  P     -241.262    -615.511     220.357
  C     -241.980    -615.985     222.842
  O     -242.077    -616.334     221.483
  O     -242.089    -614.582     219.543
  O     -240.098    -614.809     221.211
  H     -239.706    -615.377     221.896
  H     -242.759    -616.511     223.397
  H     -242.114    -614.909     222.970
  H     -241.004    -616.290     223.230
  H     -241.901    -610.624     219.328
  H     -242.153    -610.408     217.612
  H     -240.636    -609.936     218.339

 3  4  5  6  7  8  9  10  11  12  22  25  29  30  31  32 0
 6-311+G(2d,p)
 ****
 33  36  37 0
 6-311+G(2d,p)
 ****
 1  2  13  14  15  16  17  18  19  20  21  23  24  26 0
 3-21G
 ****
 27  28  34  35  38  39  40  41  42  43  44  45  46  47  48 0
 3-21G
 ****


