%nproc=1
%NoSave
%Mem=1900MB
#P OB98/GEN NMR

erre ene a

0 1
  C     -217.651    -176.988     -21.160
  O     -218.493    -176.035     -21.775
  H     -218.267    -177.652     -20.546
  H     -216.927    -176.490     -20.511
  H     -217.131    -177.590     -21.910
  P     -217.853    -174.996     -22.815
  C     -219.851    -174.893     -24.430
  O     -219.077    -174.188     -23.472
  C     -221.179    -174.180     -24.679
  O     -222.014    -174.323     -23.500
  C     -221.027    -172.681     -24.969
  O     -221.991    -172.313     -25.956
  C     -221.378    -172.030     -23.645
  O     -221.877    -170.704     -23.810
  C     -222.411    -173.004     -23.078
  N     -225.484    -172.126     -19.166
  C     -225.760    -172.205     -20.517
  N     -227.042    -171.997     -20.889
  N     -224.858    -172.466     -21.427
  C     -223.620    -172.667     -20.914
  C     -223.218    -172.612     -19.597
  C     -224.224    -172.311     -18.603
  O     -224.038    -172.213     -17.394
  N     -221.871    -172.846     -19.481
  C     -221.461    -173.038     -20.720
  N     -222.480    -172.929     -21.627
  O     -216.899    -175.583     -23.804
  O     -217.148    -173.902     -21.886
  H     -222.507    -170.724     -24.563
  H     -216.187    -174.063     -21.831
  H     -226.216    -171.914     -18.510
  H     -220.440    -173.250     -21.014
  H     -223.421    -172.806     -23.456
  H     -220.487    -171.986     -23.007
  H     -227.793    -171.811     -20.243
  H     -220.024    -172.412     -25.309
  H     -227.273    -172.077     -21.873
  H     -221.697    -174.689     -25.499
  H     -220.040    -175.901     -24.044
  H     -219.286    -174.974     -25.366
  P     -221.476    -171.852     -27.402
  C     -222.311    -173.884     -28.751
  O     -222.451    -172.488     -28.506
  O     -220.017    -172.039     -27.658
  O     -221.877    -170.298     -27.440
  H     -221.235    -169.824     -28.005
  H     -223.011    -174.186     -29.502
  H     -222.501    -174.425     -27.848
  H     -221.316    -174.089     -29.088

 6  7  8  9  10  11  12  13  14  15  26  29  33  34 0
 6-311+G(2d,p)
 ****
 36  38  39  40  41 0
 6-311+G(2d,p)
 ****
 1  2  3  4  5  16  17  18  19  20  21  22  23  24  25 0
 3-21G
 ****
 27  28  30  31  32  35  37  42  43  44  45  46  47 0
 3-21G
 ****
 48  49 0
 3-21G
 ****


