%nproc=1
%NoSave
%Mem=1900MB
#P OB98/GEN NMR

erre ene a

0 1
  C      779.769    1454.114     325.041
  O      779.708    1452.971     324.186
  P      780.920    1452.781     323.143
  C      780.939    1450.169     323.394
  O      781.618    1451.399     323.569
  C      781.814    1449.188     322.616
  O      782.130    1449.720     321.306
  C      783.138    1448.874     323.280
  O      782.968    1448.003     324.386
  C      783.913    1448.277     322.095
  O      783.541    1446.898     321.911
  C      783.398    1449.122     320.913
  N      784.355    1450.133     320.491
  C      785.464    1449.683     319.759
  O      785.627    1448.485     319.496
  N      786.341    1450.627     319.372
  C      786.269    1451.976     319.635
  O      787.097    1452.771     319.238
  C      785.123    1452.387     320.444
  C      784.224    1451.468     320.830
  O      781.938    1453.908     323.626
  O      780.482    1452.886     321.717
  H      781.932    1454.038     324.587
  H      784.037    1446.387     322.577
  H      787.137    1450.313     318.798
  H      785.042    1453.432     320.715
  H      783.381    1451.758     321.448
  H      783.169    1448.487     320.061
  H      784.988    1448.306     322.246
  H      783.617    1449.807     323.588
  H      781.239    1448.265     322.464
  H      779.997    1450.329     322.857
  H      780.682    1449.773     324.388
  P      783.827    1448.338     325.711
  C      781.875    1449.832     326.609
  O      783.240    1449.713     326.281
  O      785.232    1448.757     325.068
  O      783.884    1447.220     326.690
  H      785.139    1449.335     324.286
  H      781.737    1450.691     327.275
  H      781.509    1448.928     327.117
  H      781.277    1450.013     325.689
  H      778.912    1454.126     325.682
  H      779.782    1455.004     324.447
  H      780.658    1454.068     325.635

 3  4  5  6  7  8  9  10  11  12  13  24  28  29  30  31  32 0
 6-311+G(2d,p)
 ****
 33  34 0
 6-311+G(2d,p)
 ****
 1  2  14  15  16  17  18  19  20  21  22  23  25  26  27 0
 3-21G
 ****
 35  36  37  38  39  40  41  42  43  44  45 0
 3-21G
 ****


