%nproc=1
%NoSave
%Mem=1900MB
#P OB98/GEN NMR

erre ene a

0 1
  C      161.499      71.289       4.926
  O      162.841      71.151       4.499
  P      164.016      70.961       5.570
  C      164.926      72.200       7.633
  O      164.067      72.269       6.499
  C      165.384      73.600       8.043
  O      166.188      74.203       6.999
  C      164.250      74.579       8.283
  O      163.561      74.315       9.493
  C      164.994      75.911       8.242
  O      165.641      76.170       9.499
  C      166.046      75.640       7.145
  N      165.704      76.270       5.877
  C      165.817      77.664       5.832
  O      166.114      78.301       6.846
  N      165.586      78.304       4.636
  C      165.158      77.626       3.615
  N      165.004      78.302       2.441
  C      164.870      76.178       3.673
  C      165.186      75.566       4.814
  O      165.333      70.544       5.003
  O      163.451      69.844       6.571
  H      164.129      69.147       6.684
  H      165.962      77.095       9.457
  H      164.446      75.675       2.813
  H      165.028      74.499       4.938
  H      167.033      76.003       7.465
  H      164.330      76.756       8.035
  H      163.541      74.537       7.444
  H      166.007      73.501       8.943
  H      165.227      79.292       2.439
  H      165.798      71.587       7.375
  H      164.994      77.832       1.540
  H      164.394      71.713       8.458
  P      161.965      74.201       9.409
  C      160.052      75.749       8.602
  O      161.400      75.647       9.015
  O      161.529      74.029      10.947
  O      161.462      73.069       8.573
  H      160.768      73.422      11.005
  H      159.731      76.789       8.706
  H      159.397      75.113       9.208
  H      159.968      75.459       7.549
  H      160.863      71.405       4.073
  H      161.412      72.150       5.555
  H      161.207      70.417       5.472

 3  4  5  6  7  8  9  10  11  12  13  24  27  28  29  30  32 0
 6-311+G(2d,p)
 ****
 34  35 0
 6-311+G(2d,p)
 ****
 1  2  14  15  16  17  18  19  20  21  22  23  25  26 0
 3-21G
 ****
 31  33  36  37  38  39  40  41  42  43  44  45  46 0
 3-21G
 ****


