%nproc=1
%NoSave
%Mem=1900MB
#P OB98/GEN NMR

erre ene a

0 1
  C     -122.854     -76.232      60.441
  O     -122.259     -76.578      59.202
  H     -123.427     -75.310      60.309
  H     -122.086     -76.068      61.198
  H     -123.536     -77.026      60.766
  P     -121.349     -77.900      59.197
  C     -123.199     -79.249      57.971
  O     -122.368     -79.140      59.116
  C     -122.672     -80.330      57.031
  O     -122.399     -81.553      57.753
  C     -123.632     -80.698      55.903
  O     -123.520     -79.786      54.820
  C     -123.134     -82.096      55.541
  O     -121.970     -82.043      54.686
  C     -122.779     -82.674      56.907
  N     -124.631     -87.301      57.724
  C     -123.474     -86.902      57.093
  N     -122.719     -87.892      56.554
  N     -123.086     -85.661      56.993
  C     -123.961     -84.793      57.553
  C     -125.134     -85.052      58.221
  C     -125.526     -86.446      58.347
  O     -126.517     -86.866      58.953
  N     -125.727     -83.901      58.667
  C     -124.934     -82.939      58.234
  N     -123.863     -83.423      57.541
  O     -120.788     -77.982      60.696
  O     -120.241     -77.911      58.196
  H     -122.190     -81.547      53.876
  H     -119.908     -78.404      60.686
  H     -124.869     -88.279      57.786
  H     -125.101     -81.882      58.394
  H     -121.913     -83.352      56.865
  H     -123.892     -82.659      54.999
  H     -123.111     -88.786      56.310
  H     -124.661     -80.760      56.266
  H     -121.875     -87.603      56.073
  H     -121.717     -79.973      56.620
  H     -123.206     -78.286      57.439
  H     -124.217     -79.486      58.283
  P     -124.832     -79.520      53.933
  C     -124.772     -77.018      54.663
  O     -125.544     -78.218      54.541
  O     -125.824     -80.705      54.361
  O     -124.600     -79.503      52.460
  H     -126.531     -80.810      53.705
  H     -125.380     -76.244      55.081
  H     -124.426     -76.717      53.696
  H     -123.933     -77.197      55.302

 6  7  8  9  10  11  12  13  14  15  26  29  33  34 0
 6-311+G(2d,p)
 ****
 36  38  39  40  41 0
 6-311+G(2d,p)
 ****
 1  2  3  4  5  16  17  18  19  20  21  22  23  24  25 0
 3-21G
 ****
 27  28  30  31  32  35  37  42  43  44  45  46  47 0
 3-21G
 ****
 48  49 0
 3-21G
 ****


