%nproc=1
%NoSave
%Mem=1900MB
#P OB98/GEN NMR

erre ene a

0 1
  C      769.369     162.275    -116.119
  O      769.346     161.168    -117.005
  P      770.634     160.229    -117.189
  C      770.726     161.222    -119.560
  O      770.846     160.044    -118.771
  C      770.080     160.887    -120.915
  O      771.088     160.269    -121.776
  C      768.900     159.908    -120.796
  O      767.689     160.348    -121.416
  C      769.478     158.609    -121.340
  O      768.499     157.679    -121.773
  C      770.457     159.134    -122.396
  N      771.423     158.113    -122.815
  C      770.955     157.092    -123.635
  O      769.801     156.999    -124.037
  N      771.867     156.125    -123.953
  C      773.128     155.998    -123.450
  O      773.845     155.051    -123.698
  C      773.554     157.094    -122.546
  C      772.708     158.106    -122.298
  O      770.614     158.949    -116.424
  O      771.854     161.197    -116.799
  H      768.970     156.880    -122.082
  H      771.924     162.001    -117.348
  H      771.540     155.371    -124.544
  H      774.540     157.025    -122.122
  H      772.997     158.911    -121.645
  H      769.932     159.494    -123.282
  H      770.041     158.129    -120.527
  H      768.613     159.762    -119.737
  H      769.766     161.830    -121.378
  H      771.727     161.636    -119.735
  H      770.144     161.976    -119.022
  P      766.717     161.484    -120.850
  C      764.712     159.891    -120.439
  O      765.210     161.026    -121.107
  O      767.043     162.878    -121.295
  O      766.874     161.357    -119.255
  H      766.728     162.224    -118.847
  H      763.922     159.434    -121.056
  H      764.267     160.197    -119.492
  H      765.494     159.156    -120.256
  H      768.420     162.769    -116.140
  H      770.134     162.959    -116.423
  H      769.571     161.933    -115.126

 3  4  5  6  7  8  9  10  11  12  13  23  28  29  30  31  32 0
 6-311+G(2d,p)
 ****
 33  34 0
 6-311+G(2d,p)
 ****
 1  2  14  15  16  17  18  19  20  21  22  24  25  26  27 0
 3-21G
 ****
 35  36  37  38  39  40  41  42  43  44  45 0
 3-21G
 ****


