%nproc=1
%NoSave
%Mem=1900MB
#P OB98/GEN NMR

erre ene a

0 1
  C       23.080      83.114     -90.606
  O       22.267      83.625     -89.549
  P       21.394      84.944     -89.807
  C       23.014      86.662     -88.776
  O       22.387      86.198     -89.963
  C       23.374      88.149     -88.897
  O       23.771      88.688     -87.602
  C       24.541      88.395     -89.863
  O       24.382      89.656     -90.534
  C       25.731      88.514     -88.931
  O       26.817      89.201     -89.548
  C       25.094      89.242     -87.749
  N       28.427      91.471     -84.564
  C       27.804      91.925     -85.675
  N       26.912      91.283     -86.458
  C       26.667      90.049     -85.987
  C       27.219      89.454     -84.863
  C       28.147      90.218     -84.136
  N       28.803      89.746     -83.022
  N       26.732      88.173     -84.695
  C       25.937      87.983     -85.728
  N       25.839      89.097     -86.517
  O       20.253      85.158     -88.870
  O       20.871      84.734     -91.309
  H       27.568      89.177     -88.927
  H       19.935      85.010     -91.362
  H       28.061      92.936     -85.976
  H       25.423      87.061     -85.957
  H       24.982      90.315     -87.945
  H       26.076      87.515     -88.642
  H       24.681      87.613     -90.615
  H       22.486      88.706     -89.216
  H       23.915      86.077     -88.583
  H       29.536      90.321     -82.635
  H       28.715      88.769     -82.781
  H       22.349      86.481     -87.925
  P       24.212      89.586     -92.134
  C       26.717      89.398     -92.857
  O       25.474      88.760     -92.670
  O       23.978      90.917     -92.767
  O       22.982      88.576     -92.291
  H       23.068      87.746     -91.791
  H       27.468      88.643     -93.100
  H       27.029      89.919     -91.947
  H       26.654      90.108     -93.686
  H       23.593      82.237     -90.270
  H       23.795      83.855     -90.897
  H       22.462      82.866     -91.444

 3  4  5  6  7  8  9  10  11  12  22  25  29  30  31  32 0
 6-311+G(2d,p)
 ****
 33  36  37 0
 6-311+G(2d,p)
 ****
 1  2  13  14  15  16  17  18  19  20  21  23  24  26 0
 3-21G
 ****
 27  28  34  35  38  39  40  41  42  43  44  45  46  47  48 0
 3-21G
 ****


