%nproc=1
%NoSave
%Mem=1900MB
#P OB98/GEN NMR

erre ene a

0 1
  C     -793.281    -244.215       5.357
  O     -794.427    -243.361       5.402
  P     -794.197    -241.780       5.578
  C     -794.831    -241.837       8.091
  O     -793.841    -241.487       7.117
  C     -794.441    -241.289       9.474
  O     -794.031    -239.904       9.335
  C     -795.575    -241.290      10.508
  O     -795.752    -242.449      11.315
  C     -795.110    -240.177      11.449
  O     -794.160    -240.697      12.393
  C     -794.422    -239.181      10.525
  N     -796.086    -234.561      11.987
  C     -795.226    -235.436      12.567
  N     -794.843    -236.644      12.105
  C     -795.412    -236.922      10.930
  C     -796.298    -236.117      10.217
  C     -796.635    -234.888      10.789
  N     -797.515    -233.992      10.216
  N     -796.680    -236.733       9.033
  C     -796.045    -237.897       9.053
  N     -795.265    -238.056      10.158
  O     -795.240    -240.898       4.978
  O     -792.774    -241.554       4.851
  H     -794.590    -241.458      12.827
  H     -792.795    -240.705       4.381
  H     -794.805    -235.130      13.512
  H     -796.145    -238.656       8.281
  H     -793.505    -238.758      10.964
  H     -795.937    -239.763      12.039
  H     -796.519    -241.010      10.045
  H     -793.578    -241.861       9.863
  H     -794.919    -242.919       8.135
  H     -797.734    -233.147      10.720
  H     -797.973    -234.244       9.354
  H     -795.780    -241.447       7.735
  P     -796.948    -243.484      11.024
  C     -798.275    -242.790      13.185
  O     -798.237    -242.884      11.765
  O     -796.641    -244.914      11.372
  O     -797.268    -243.232       9.484
  H     -797.666    -242.358       9.285
  H     -799.117    -242.161      13.470
  H     -797.354    -242.340      13.567
  H     -798.410    -243.788      13.605
  H     -793.597    -245.230       5.237
  H     -792.728    -244.119       6.268
  H     -792.660    -243.935       4.532

 3  4  5  6  7  8  9  10  11  12  22  25  29  30  31  32 0
 6-311+G(2d,p)
 ****
 33  36  37 0
 6-311+G(2d,p)
 ****
 1  2  13  14  15  16  17  18  19  20  21  23  24  26 0
 3-21G
 ****
 27  28  34  35  38  39  40  41  42  43  44  45  46  47  48 0
 3-21G
 ****


