%nproc=1
%NoSave
%Mem=1900MB
#P OB98/GEN NMR

erre ene a

0 1
  C      300.157     389.358    -659.596
  O      299.667     388.505    -658.585
  P      300.608     387.733    -657.545
  C      300.391     389.267    -655.471
  O      301.214     388.816    -656.520
  C      300.945     388.931    -654.077
  O      302.246     389.535    -653.916
  C      300.050     389.530    -652.988
  O      298.883     388.858    -652.559
  C      301.005     389.931    -651.869
  O      301.062     388.959    -650.823
  C      302.356     390.028    -652.571
  N      305.480     393.380    -650.377
  C      305.411     392.008    -650.220
  N      306.155     391.505    -649.195
  N      304.687     391.228    -650.957
  C      303.938     391.887    -651.876
  C      303.913     393.230    -652.142
  C      304.763     394.097    -651.338
  O      304.776     395.320    -651.395
  N      302.973     393.559    -653.078
  C      302.390     392.415    -653.364
  N      302.907     391.377    -652.623
  O      301.510     386.686    -658.112
  O      299.515     386.979    -656.629
  H      301.405     388.132    -651.205
  H      299.894     386.124    -656.352
  H      306.000     393.953    -649.721
  H      301.566     392.290    -654.056
  H      303.104     389.406    -652.066
  H      300.688     390.872    -651.403
  H      306.603     392.094    -648.517
  H      299.664     390.481    -653.383
  H      305.996     390.530    -648.943
  H      301.105     387.856    -653.973
  H      299.399     388.833    -655.607
  H      300.273     390.362    -655.539
  P      297.448     389.515    -652.261
  C      296.546     388.313    -654.329
  O      296.616     389.543    -653.622
  O      297.782     391.065    -652.015
  O      296.734     388.935    -651.085
  H      297.066     391.480    -651.490
  H      296.230     388.497    -655.361
  H      295.808     387.649    -653.851
  H      297.520     387.804    -654.347
  H      299.337     389.753    -660.158
  H      300.803     388.806    -660.247
  H      300.704     390.163    -659.150

 3  4  5  6  7  8  9  10  11  12  23  26  30  31 0
 6-311+G(2d,p)
 ****
 33  35  36  37  38 0
 6-311+G(2d,p)
 ****
 1  2  13  14  15  16  17  18  19  20  21  22  24  25 0
 3-21G
 ****
 27  28  29  32  34  39  40  41  42  43  44  45  46  47  48  49 0
 3-21G
 ****


