%nproc=1
%NoSave
%Mem=1900MB
#P OB98/GEN NMR

erre ene a

0 1
  C      343.551    -346.365     -92.038
  O      342.439    -346.072     -92.852
  P      342.305    -346.751     -94.299
  C      342.103    -345.067     -96.226
  O      342.989    -345.773     -95.364
  C      341.221    -344.114     -95.422
  O      342.029    -343.288     -94.560
  C      340.406    -343.151     -96.271
  O      339.292    -343.808     -96.854
  C      340.044    -342.074     -95.250
  O      338.917    -342.487     -94.456
  C      341.317    -342.036     -94.389
  N      342.192    -337.059     -93.618
  C      341.153    -337.853     -93.276
  N      340.976    -339.170     -93.560
  C      341.998    -339.643     -94.271
  C      343.111    -338.936     -94.732
  C      343.197    -337.585     -94.358
  N      344.281    -336.783     -94.643
  N      343.934    -339.771     -95.482
  C      343.328    -340.939     -95.479
  N      342.194    -340.924     -94.718
  O      340.938    -347.232     -94.660
  O      343.333    -347.983     -94.232
  H      338.123    -342.385     -95.006
  H      342.843    -348.824     -94.367
  H      340.367    -337.383     -92.696
  H      343.680    -341.822     -96.000
  H      341.081    -341.953     -93.319
  H      339.792    -341.121     -95.712
  H      341.041    -342.710     -97.060
  H      340.562    -344.714     -94.784
  H      341.480    -345.799     -96.756
  H      344.304    -335.874     -94.196
  H      345.156    -337.223     -94.913
  H      342.685    -344.505     -96.970
  P      338.730    -343.318     -98.277
  C      336.750    -341.705     -98.164
  O      338.147    -341.843     -98.071
  O      337.823    -344.282     -98.972
  O      340.060    -343.072     -99.135
  H      339.884    -343.274    -100.077
  H      336.445    -341.713     -99.226
  H      336.455    -340.746     -97.719
  H      336.236    -342.514     -97.645
  H      343.471    -345.826     -91.117
  H      344.449    -346.077     -92.544
  H      343.577    -347.415     -91.835

 3  4  5  6  7  8  9  10  11  12  22  25  29  30  31  32 0
 6-311+G(2d,p)
 ****
 33  36  37 0
 6-311+G(2d,p)
 ****
 1  2  13  14  15  16  17  18  19  20  21  23  24  26 0
 3-21G
 ****
 27  28  34  35  38  39  40  41  42  43  44  45  46  47  48 0
 3-21G
 ****


