%nproc=1
%NoSave
%Mem=1900MB
#P OB98/GEN NMR

erre ene a

0 1
  C       12.004    -255.827    -345.461
  O       11.157    -254.693    -345.422
  H       12.847    -255.656    -344.786
  H       12.392    -255.981    -346.473
  H       11.465    -256.717    -345.128
  P        9.861    -254.675    -346.363
  C       10.851    -253.149    -348.198
  O       10.400    -254.454    -347.858
  C       10.139    -252.647    -349.454
  O       10.687    -253.273    -350.631
  C        8.636    -252.934    -349.473
  O        7.932    -251.965    -348.714
  C        8.356    -252.824    -350.963
  O        8.312    -251.432    -351.346
  C        9.601    -253.494    -351.573
  N        7.589    -257.092    -354.534
  C        7.382    -255.727    -354.535
  N        6.490    -255.255    -355.435
  N        7.985    -254.899    -353.723
  C        8.794    -255.516    -352.832
  C        9.069    -256.863    -352.718
  C        8.443    -257.765    -353.673
  O        8.619    -258.976    -353.718
  N        9.867    -257.131    -351.638
  C       10.123    -255.938    -351.127
  N        9.488    -254.926    -351.811
  O        8.771    -253.727    -345.963
  O        9.364    -256.196    -346.375
  H        9.224    -251.094    -351.290
  H        8.701    -256.356    -345.676
  H        7.085    -257.682    -355.178
  H       10.760    -255.755    -350.271
  H        9.895    -253.038    -352.524
  H        7.401    -253.268    -351.249
  H        5.885    -255.854    -355.980
  H        8.417    -253.958    -349.148
  H        6.282    -254.263    -355.410
  H       10.331    -251.572    -349.545
  H       11.932    -253.208    -348.377
  H       10.673    -252.455    -347.373
  P        6.501    -252.293    -348.061
  C        5.195    -250.804    -349.726
  O        5.438    -252.118    -349.251
  O        6.181    -251.520    -346.829
  O        6.507    -253.875    -347.856
  H        6.934    -254.156    -347.006
  H        4.471    -250.837    -350.513
  H        6.107    -250.385    -350.098
  H        4.825    -250.198    -348.926

 6  7  8  9  10  11  12  13  14  15  26  29  33  34 0
 6-311+G(2d,p)
 ****
 36  38  39  40  41 0
 6-311+G(2d,p)
 ****
 1  2  3  4  5  16  17  18  19  20  21  22  23  24  25 0
 3-21G
 ****
 27  28  30  31  32  35  37  42  43  44  45  46  47 0
 3-21G
 ****
 48  49 0
 3-21G
 ****


