%nproc=1
%NoSave
%Mem=1900MB
#P OB98/GEN NMR

erre ene a

0 1
  C       81.614    -191.183    -261.216
  O       81.866    -192.416    -260.514
  P       81.057    -193.738    -260.942
  C       82.433    -194.642    -262.967
  O       82.047    -194.809    -261.611
  C       83.071    -195.924    -263.528
  O       84.048    -196.451    -262.581
  C       82.075    -197.056    -263.817
  O       82.583    -197.786    -264.948
  C       82.172    -197.908    -262.564
  O       81.695    -199.236    -262.747
  C       83.677    -197.815    -262.288
  N       84.058    -198.174    -260.918
  C       85.013    -199.170    -260.751
  O       85.512    -199.818    -261.664
  N       85.370    -199.439    -259.451
  C       84.847    -198.853    -258.335
  O       85.189    -199.158    -257.200
  C       83.825    -197.826    -258.571
  C       83.482    -197.540    -259.827
  O       80.216    -193.217    -262.207
  O       80.133    -194.291    -259.903
  H       81.842    -199.712    -261.909
  H       79.292    -193.520    -262.134
  H       86.069    -200.148    -259.308
  H       83.389    -197.329    -257.716
  H       82.735    -196.775    -260.027
  H       84.218    -198.447    -262.992
  H       81.575    -197.447    -261.766
  H       81.063    -196.698    -264.022
  H       83.628    -195.656    -264.437
  H       83.159    -193.827    -263.038
  H       81.553    -194.374    -263.556
  P       82.227    -197.251    -266.426
  C       84.320    -195.749    -266.906
  O       83.613    -196.945    -267.163
  O       81.671    -195.786    -266.069
  O       81.241    -198.090    -267.166
  H       82.233    -195.315    -265.430
  H       84.302    -195.498    -265.839
  H       83.878    -194.932    -267.483
  H       85.360    -195.879    -267.213
  H       82.230    -190.409    -260.809
  H       80.584    -190.914    -261.106
  H       81.840    -191.311    -262.254

 3  4  5  6  7  8  9  10  11  12  13  23  28  29  30  31  32 0
 6-311+G(2d,p)
 ****
 33  34 0
 6-311+G(2d,p)
 ****
 1  2  14  15  16  17  18  19  20  21  22  24  25  26 0
 3-21G
 ****
 27  35  36  37  38  39  40  41  42  43  44  45 0
 3-21G
 ****


