%nproc=1
%NoSave
%Mem=1900MB
#P OB98/GEN NMR

erre ene a

0 1
  C      -15.555     372.635      53.639
  O      -15.556     371.522      52.770
  H      -16.564     372.764      54.042
  H      -15.277     373.546      53.102
  H      -14.869     372.467      54.473
  P      -14.213     371.191      51.955
  C      -14.998     371.618      49.523
  O      -14.735     370.654      50.533
  C      -15.817     370.990      48.395
  O      -15.058     369.968      47.713
  C      -17.094     370.289      48.843
  O      -18.132     371.185      49.208
  C      -17.417     369.501      47.586
  O      -17.976     370.385      46.594
  C      -16.010     369.013      47.165
  N      -15.709     367.663      47.640
  C      -15.094     366.800      46.723
  O      -14.833     367.179      45.582
  N      -14.824     365.509      47.110
  C      -15.153     365.109      48.298
  N      -14.905     363.807      48.615
  C      -15.783     365.991      49.301
  C      -16.034     367.238      48.909
  O      -13.219     370.311      52.647
  O      -13.624     372.627      51.560
  H      -17.427     371.188      46.588
  H      -12.782     372.477      51.063
  H      -16.044     365.606      50.276
  H      -16.513     367.941      49.582
  H      -15.900     369.037      46.074
  H      -18.145     368.700      47.750
  H      -16.887     369.583      49.656
  H      -16.027     371.780      47.662
  H      -14.511     363.223      47.890
  H      -14.039     371.992      49.151
  H      -15.372     363.355      49.396
  H      -15.570     372.453      49.938
  P      -18.311     371.536      50.767
  C      -20.861     371.117      51.122
  O      -19.816     372.060      50.947
  O      -17.423     372.853      50.939
  O      -17.923     370.450      51.724
  H      -16.521     372.635      51.241
  H      -21.793     371.632      51.226
  H      -20.674     370.537      52.001
  H      -20.904     370.470      50.271

 6  7  8  9  10  11  12  13  14  15  16  26  30  31  32  33  35 0
 6-311+G(2d,p)
 ****
 37  38 0
 6-311+G(2d,p)
 ****
 1  2  3  4  5  17  18  19  20  21  22  23  24  25 0
 3-21G
 ****
 27  28  29  34  36  39  40  41  42  43  44  45  46 0
 3-21G
 ****


