%nproc=1
%NoSave
%Mem=1900MB
#P OB98/GEN NMR

erre ene a

0 1
  C       15.270     257.704      20.312
  O       14.111     258.126      21.039
  P       13.797     257.589      22.518
  C       13.118     259.812      23.615
  O       12.686     258.509      23.233
  C       12.008     260.867      23.520
  O       11.841     261.329      22.151
  C       10.625     260.398      23.998
  O        9.979     261.554      24.533
  C        9.967     259.974      22.695
  O        8.548     259.891      22.779
  C       10.483     261.051      21.753
  N        7.503     260.765      17.596
  C        7.332     261.390      18.778
  N        8.183     261.452      19.824
  C        9.336     260.822      19.545
  C        9.661     260.154      18.375
  C        8.677     260.125      17.370
  N        8.826     259.452      16.179
  N       10.925     259.595      18.461
  C       11.352     259.920      19.666
  N       10.425     260.666      20.360
  O       15.017     257.352      23.357
  O       13.027     256.200      22.282
  H        8.200     259.739      21.882
  H       13.399     255.520      22.876
  H        6.380     261.899      18.908
  H       12.298     259.626      20.101
  H        9.907     261.982      21.869
  H       10.339     258.978      22.413
  H       10.672     259.594      24.739
  H       12.335     261.738      24.104
  H       13.953     260.105      22.966
  H        8.024     259.418      15.556
  H        9.637     258.865      16.044
  H       13.501     259.771      24.644
  P        9.284     261.539      25.985
  C       10.037     263.873      26.729
  O        8.938     263.063      26.341
  O       10.052     260.807      27.041
  O        7.847     260.882      25.737
  H        7.488     260.559      26.585
  H       10.324     263.638      27.753
  H        9.739     264.921      26.670
  H       10.897     263.718      26.066
  H       15.284     258.181      19.354
  H       15.242     256.642      20.181
  H       16.151     257.973      20.857

 3  4  5  6  7  8  9  10  11  12  22  25  29  30  31  32 0
 6-311+G(2d,p)
 ****
 33  36  37 0
 6-311+G(2d,p)
 ****
 1  2  13  14  15  16  17  18  19  20  21  23  24  26 0
 3-21G
 ****
 27  28  34  35  38  39  40  41  42  43  44  45  46  47  48 0
 3-21G
 ****


