%nproc=1
%NoSave
%Mem=1900MB
#P OB98/GEN NMR

erre ene a

0 1
  C      -77.791     163.479     463.275
  O      -76.814     163.851     462.333
  H      -77.722     164.158     464.138
  H      -77.634     162.457     463.623
  H      -78.797     163.579     462.843
  P      -76.665     162.972     460.997
  C      -77.883     164.460     459.268
  O      -77.940     163.289     460.083
  C      -78.671     164.236     457.975
  O      -80.068     164.032     458.333
  C      -78.590     165.447     457.027
  O      -78.173     165.097     455.706
  C      -79.961     166.108     457.173
  O      -80.389     166.853     456.053
  C      -80.879     164.932     457.537
  N      -82.081     165.311     458.277
  C      -82.932     166.241     457.668
  O      -82.759     166.731     456.555
  N      -84.024     166.586     458.407
  C      -84.360     166.126     459.654
  O      -85.368     166.471     460.249
  C      -83.408     165.177     460.243
  C      -82.337     164.814     459.546
  O      -76.385     161.521     461.205
  O      -75.471     163.689     460.197
  H      -81.281     167.210     456.275
  H      -74.647     163.165     460.302
  H      -84.668     167.244     457.964
  H      -83.636     164.802     461.236
  H      -81.606     164.117     459.950
  H      -81.187     164.387     456.639
  H      -79.916     166.795     458.034
  H      -77.822     166.153     457.353
  H      -78.310     163.322     457.488
  H      -76.831     164.657     459.044
  H      -78.303     165.312     459.815
  P      -76.656     165.097     455.194
  C      -76.191     162.528     455.496
  O      -75.899     163.866     455.889
  O      -75.963     166.422     455.227
  O      -76.779     164.638     453.663
  H      -76.057     165.102     453.171
  H      -75.592     161.850     456.067
  H      -75.974     162.407     454.455
  H      -77.226     162.323     455.671

 6  7  8  9  10  11  12  13  14  15  16  26  31  32  33  34  35 0
 6-311+G(2d,p)
 ****
 36  37 0
 6-311+G(2d,p)
 ****
 1  2  3  4  5  17  18  19  20  21  22  23  24  25 0
 3-21G
 ****
 27  28  29  30  38  39  40  41  42  43  44  45 0
 3-21G
 ****


