%nproc=1
%NoSave
%Mem=1900MB
#P OB98/GEN NMR

erre ene a

0 1
  C     -234.344      34.177     357.314
  O     -234.810      34.443     356.000
  P     -235.870      35.612     355.717
  C     -235.846      37.778     354.331
  O     -235.124      36.611     354.707
  C     -234.937      38.733     353.563
  O     -233.945      39.256     354.479
  C     -234.139      38.115     352.416
  O     -234.842      38.023     351.187
  C     -233.012      39.133     352.274
  O     -233.488      40.283     351.549
  C     -232.727      39.508     353.731
  N     -228.259      39.754     356.208
  C     -229.122      40.710     355.804
  N     -230.285      40.567     355.134
  C     -230.545      39.268     354.918
  C     -229.765      38.179     355.275
  C     -228.565      38.460     355.953
  N     -227.697      37.480     356.385
  N     -230.357      36.999     354.867
  C     -231.479      37.371     354.290
  N     -231.641      38.730     354.302
  O     -236.446      36.235     356.941
  O     -236.976      34.924     354.789
  H     -234.130      40.738     352.130
  H     -237.788      35.469     354.782
  H     -228.842      41.733     356.050
  H     -232.197      36.696     353.846
  H     -232.485      40.568     353.854
  H     -232.151      38.744     351.723
  H     -233.712      37.146     352.704
  H     -235.541      39.576     353.205
  H     -236.200      38.274     355.244
  H     -226.933      37.766     356.974
  H     -228.007      36.519     356.341
  H     -236.718      37.496     353.735
  P     -234.984      36.560     350.530
  C     -236.976      35.320     349.364
  O     -236.537      36.404     350.157
  O     -234.407      35.457     351.344
  O     -234.282      36.742     349.104
  H     -234.746      37.331     348.485
  H     -238.068      35.307     349.365
  H     -236.617      34.370     349.768
  H     -236.625      35.443     348.336
  H     -233.648      33.365     357.288
  H     -235.172      33.917     357.940
  H     -233.861      35.048     357.704

 3  4  5  6  7  8  9  10  11  12  22  25  29  30  31  32 0
 6-311+G(2d,p)
 ****
 33  36  37 0
 6-311+G(2d,p)
 ****
 1  2  13  14  15  16  17  18  19  20  21  23  24  26 0
 3-21G
 ****
 27  28  34  35  38  39  40  41  42  43  44  45  46  47  48 0
 3-21G
 ****


