%nproc=1
%NoSave
%Mem=1900MB
#P OB98/GEN NMR

erre ene a

0 1
  C     -246.267     -50.021      75.281
  O     -247.165     -51.088      75.538
  P     -246.886     -52.121      76.731
  C     -248.671     -50.955      78.167
  O     -247.316     -51.378      78.088
  C     -249.006     -50.484      79.581
  O     -250.326     -49.890      79.574
  C     -249.016     -51.609      80.609
  O     -248.514     -51.105      81.850
  C     -250.487     -51.942      80.790
  O     -250.737     -52.513      82.085
  C     -251.136     -50.575      80.548
  N     -256.120     -50.788      81.759
  C     -255.015     -50.642      82.524
  N     -253.722     -50.621      82.138
  C     -253.626     -50.711      80.802
  C     -254.663     -50.860      79.893
  C     -255.964     -50.901      80.420
  N     -257.090     -51.037      79.636
  N     -254.171     -50.952      78.604
  C     -252.868     -50.840      78.735
  N     -252.490     -50.682      80.042
  O     -245.517     -52.707      76.751
  O     -248.011     -53.243      76.561
  H     -250.436     -53.445      82.050
  H     -247.644     -54.124      76.766
  H     -255.195     -50.533      83.590
  H     -252.158     -50.877      77.924
  H     -251.153     -49.969      81.462
  H     -250.793     -52.672      80.034
  H     -248.429     -52.479      80.295
  H     -248.295     -49.700      79.867
  H     -249.312     -51.805      77.911
  H     -257.984     -50.933      80.089
  H     -256.986     -50.946      78.635
  H     -248.846     -50.156      77.440
  P     -247.733     -52.168      82.776
  C     -245.752     -51.542      81.208
  O     -246.417     -52.542      81.944
  O     -248.615     -53.294      83.203
  O     -247.225     -51.225      83.968
  H     -247.143     -50.290      83.678
  H     -244.908     -51.996      80.683
  H     -245.366     -50.771      81.882
  H     -246.426     -51.091      80.476
  H     -246.624     -49.446      74.452
  H     -245.300     -50.416      75.051
  H     -246.200     -49.395      76.146

 3  4  5  6  7  8  9  10  11  12  22  25  29  30  31  32 0
 6-311+G(2d,p)
 ****
 33  36  37 0
 6-311+G(2d,p)
 ****
 1  2  13  14  15  16  17  18  19  20  21  23  24  26 0
 3-21G
 ****
 27  28  34  35  38  39  40  41  42  43  44  45  46  47  48 0
 3-21G
 ****


