%nproc=1
%NoSave
%Mem=1900MB
#P OB98/GEN NMR

erre ene a

0 1
  C     -971.003    -865.570     186.330
  O     -972.410    -865.614     186.284
  H     -970.684    -865.514     187.370
  H     -970.622    -864.686     185.799
  H     -970.572    -866.471     185.875
  P     -973.127    -865.696     184.855
  C     -974.204    -863.352     184.824
  O     -974.420    -864.757     184.950
  C     -975.547    -862.625     184.802
  O     -976.266    -862.912     183.583
  C     -976.487    -863.010     185.947
  O     -976.135    -862.312     187.143
  C     -977.820    -862.566     185.375
  O     -977.950    -861.135     185.473
  C     -977.680    -863.001     183.908
  N     -981.599    -866.215     184.065
  C     -981.498    -864.907     184.518
  N     -982.594    -864.399     185.129
  N     -980.429    -864.175     184.388
  C     -979.398    -864.837     183.816
  C     -979.373    -866.128     183.341
  C     -980.575    -866.918     183.444
  O     -980.719    -868.060     183.035
  N     -978.121    -866.464     182.875
  C     -977.408    -865.370     183.036
  N     -978.140    -864.354     183.615
  O     -973.411    -867.072     184.333
  O     -972.151    -864.888     183.883
  H     -977.089    -860.767     185.170
  H     -971.499    -865.469     183.453
  H     -982.456    -866.737     184.205
  H     -976.375    -865.254     182.747
  H     -978.213    -862.331     183.227
  H     -978.675    -863.015     185.905
  H     -983.311    -865.002     185.516
  H     -976.509    -864.097     186.105
  H     -982.526    -863.470     185.515
  H     -975.345    -861.548     184.815
  H     -973.666    -863.188     183.885
  H     -973.596    -862.984     185.645
  P     -975.428    -863.061     188.378
  C     -976.235    -861.815     190.472
  O     -975.232    -861.946     189.482
  O     -974.195    -863.824     188.016
  O     -976.589    -863.969     188.996
  H     -976.655    -864.861     188.573
  H     -975.970    -861.027     191.146
  H     -976.323    -862.733     191.014
  H     -977.170    -861.585     190.005

 6  7  8  9  10  11  12  13  14  15  26  29  33  34 0
 6-311+G(2d,p)
 ****
 36  38  39  40  41 0
 6-311+G(2d,p)
 ****
 1  2  3  4  5  16  17  18  19  20  21  22  23  24  25 0
 3-21G
 ****
 27  28  30  31  32  35  37  42  43  44  45  46  47 0
 3-21G
 ****
 48  49 0
 3-21G
 ****


