%nproc=1
%NoSave
%Mem=1900MB
#P OB98/GEN NMR

erre ene a

0 1
  C     -106.254    -766.626    1079.550
  O     -106.994    -767.532    1080.356
  H     -106.840    -765.720    1079.421
  H     -106.070    -767.075    1078.562
  H     -105.315    -766.384    1080.038
  P     -106.313    -768.960    1080.640
  C     -106.976    -768.497    1083.101
  O     -106.958    -769.438    1082.030
  C     -108.026    -768.883    1084.133
  O     -109.350    -768.603    1083.648
  C     -108.012    -770.372    1084.500
  O     -107.028    -770.651    1085.473
  C     -109.427    -770.548    1085.079
  O     -109.442    -770.084    1086.450
  C     -110.262    -769.593    1084.188
  N     -114.689    -771.707    1082.644
  C     -114.252    -771.326    1083.852
  N     -113.036    -770.817    1084.197
  C     -112.246    -770.717    1083.128
  C     -112.553    -771.078    1081.824
  C     -113.837    -771.577    1081.585
  N     -114.266    -771.974    1080.312
  N     -111.475    -770.830    1080.976
  C     -110.566    -770.292    1081.762
  N     -110.967    -770.216    1083.082
  O     -104.828    -769.008    1080.537
  O     -107.089    -769.871    1079.562
  H     -109.148    -769.151    1086.420
  H     -108.030    -769.628    1079.527
  H     -114.982    -771.427    1084.659
  H     -109.605    -769.890    1081.412
  H     -111.018    -769.054    1084.769
  H     -109.754    -771.586    1085.078
  H     -107.917    -771.004    1083.607
  H     -107.868    -768.263    1085.026
  H     -107.198    -767.496    1082.718
  H     -115.116    -772.497    1080.292
  H     -113.598    -772.002    1079.580
  H     -105.982    -768.469    1083.555
  P     -106.492    -772.140    1085.734
  C     -104.340    -772.146    1084.305
  O     -104.890    -772.018    1085.609
  O     -107.145    -773.181    1084.880
  O     -106.729    -772.381    1087.292
  H     -106.666    -773.332    1087.487
  H     -103.276    -772.047    1084.355
  H     -104.740    -771.381    1083.673
  H     -104.590    -773.106    1083.905

 6  7  8  9  10  11  12  13  14  15  25  28  32  33  34  35 0
 6-311+G(2d,p)
 ****
 36  39  40 0
 6-311+G(2d,p)
 ****
 1  2  3  4  5  16  17  18  19  20  21  22  23  24 0
 3-21G
 ****
 26  27  29  30  31  37  38  41  42  43  44  45  46  47 0
 3-21G
 ****
 48 0
 3-21G
 ****


