%nproc=1
%NoSave
%Mem=1900MB
#P OB98/GEN NMR

erre ene a

0 1
  C      137.133    -438.595    -821.816
  O      136.456    -438.109    -820.663
  P      137.139    -436.888    -819.873
  C      136.882    -438.225    -817.649
  O      137.754    -437.520    -818.540
  C      137.544    -439.525    -817.175
  O      138.135    -440.212    -818.298
  C      138.673    -439.322    -816.181
  O      138.159    -439.050    -814.883
  C      139.410    -440.655    -816.291
  O      138.821    -441.644    -815.413
  C      139.196    -441.038    -817.774
  N      140.408    -440.916    -818.565
  C      141.281    -442.031    -818.545
  O      140.972    -443.019    -817.863
  N      142.435    -441.975    -819.259
  C      142.725    -440.896    -819.928
  N      143.901    -440.891    -820.614
  C      141.877    -439.694    -819.950
  C      140.743    -439.767    -819.257
  O      135.872    -436.053    -819.345
  O      138.067    -436.047    -820.690
  H      138.961    -441.309    -814.503
  H      136.100    -435.109    -819.212
  H      142.159    -438.832    -820.528
  H      140.043    -438.943    -819.211
  H      138.835    -442.084    -817.841
  H      140.460    -440.557    -816.006
  H      139.342    -438.505    -816.504
  H      136.764    -440.170    -816.751
  H      144.472    -441.722    -820.575
  H      135.955    -438.469    -818.166
  H      144.213    -440.115    -821.187
  H      136.648    -437.572    -816.794
  P      138.542    -437.644    -814.216
  C      139.292    -438.967    -812.140
  O      139.658    -438.009    -813.113
  O      137.252    -437.341    -813.295
  O      138.859    -436.516    -815.137
  H      137.334    -436.454    -812.909
  H      140.159    -439.233    -811.558
  H      138.883    -439.874    -812.618
  H      138.527    -438.536    -811.463
  H      136.575    -439.402    -822.244
  H      138.106    -438.942    -821.538
  H      137.227    -437.807    -822.533

 3  4  5  6  7  8  9  10  11  12  13  21  23  27  28  29  30  32 0
 6-311+G(2d,p)
 ****
 34  35 0
 6-311+G(2d,p)
 ****
 1  2  14  15  16  17  18  19  20  22  24  25  26 0
 3-21G
 ****
 31  33  36  37  38  39  40  41  42  43  44  45  46 0
 3-21G
 ****


