%nproc=1
%NoSave
%Mem=1900MB
#P OB98/GEN NMR

erre ene a

0 1
  C     -420.071     -78.202     525.218
  O     -420.843     -79.125     524.469
  P     -420.071     -80.443     523.950
  C     -421.398     -81.999     525.576
  O     -421.051     -81.686     524.242
  C     -422.441     -83.133     525.590
  O     -423.754     -82.585     525.347
  C     -422.211     -84.206     524.514
  O     -421.250     -85.136     524.936
  C     -423.621     -84.798     524.380
  O     -423.887     -85.734     525.422
  C     -424.499     -83.540     524.545
  N     -427.719     -83.745     520.610
  C     -427.517     -84.645     521.653
  N     -428.307     -85.734     521.673
  N     -426.614     -84.494     522.599
  C     -425.882     -83.350     522.418
  C     -425.959     -82.403     521.453
  C     -427.007     -82.557     520.438
  O     -427.290     -81.743     519.580
  N     -425.037     -81.417     521.614
  C     -424.402     -81.762     522.725
  N     -424.877     -82.921     523.255
  O     -418.892     -80.630     525.014
  O     -419.561     -80.369     522.536
  H     -423.243     -86.493     525.362
  H     -418.036     -80.263     524.661
  H     -428.438     -83.911     519.935
  H     -423.594     -81.185     523.180
  H     -425.443     -83.767     525.063
  H     -423.751     -85.329     523.430
  H     -429.026     -85.930     520.963
  H     -421.922     -83.742     523.569
  H     -428.180     -86.410     522.404
  H     -422.452     -83.588     526.595
  H     -421.844     -81.122     526.055
  H     -420.503     -82.304     526.129
  P     -420.635     -86.128     523.854
  C     -418.577     -84.653     523.217
  O     -419.044     -85.869     523.784
  O     -421.166     -85.524     522.459
  O     -421.043     -87.566     524.013
  H     -421.380     -86.265     521.838
  H     -417.651     -84.401     523.698
  H     -419.288     -83.829     523.347
  H     -418.408     -84.802     522.153
  H     -420.685     -77.374     525.506
  H     -419.256     -77.851     524.620
  H     -419.689     -78.684     526.093

 3  4  5  6  7  8  9  10  11  12  23  26  30  31 0
 6-311+G(2d,p)
 ****
 33  35  36  37  38 0
 6-311+G(2d,p)
 ****
 1  2  13  14  15  16  17  18  19  20  21  22  24  25 0
 3-21G
 ****
 27  28  29  32  34  39  40  41  42  43  44  45  46  47  48  49 0
 3-21G
 ****


