%nproc=1
%NoSave
%Mem=1900MB
#P OB98/GEN NMR

erre ene a

0 1
  C      452.599    -243.217     179.902
  O      452.671    -242.044     179.116
  H      453.247    -243.096     180.775
  H      452.938    -244.084     179.328
  H      451.572    -243.379     180.245
  P      451.863    -242.069     177.724
  C      453.817    -243.498     176.757
  O      452.419    -243.383     176.987
  C      454.067    -244.396     175.545
  O      455.471    -244.686     175.400
  C      453.370    -245.754     175.621
  O      451.996    -245.685     175.301
  C      454.163    -246.520     174.574
  O      453.734    -246.118     173.260
  C      455.600    -246.032     174.864
  N      456.320    -246.896     175.800
  C      457.065    -247.940     175.240
  O      457.089    -248.116     174.025
  N      457.744    -248.794     176.084
  C      457.693    -248.617     177.363
  N      458.372    -249.500     178.155
  C      456.936    -247.521     177.992
  C      456.277    -246.709     177.169
  O      452.529    -240.884     176.880
  O      450.376    -241.989     177.829
  H      452.852    -246.509     173.117
  H      452.184    -240.895     175.956
  H      456.909    -247.413     179.068
  H      455.697    -245.877     177.554
  H      456.179    -245.958     173.938
  H      454.022    -247.601     174.641
  H      453.532    -246.231     176.599
  H      453.754    -243.839     174.646
  H      458.831    -250.275     177.700
  H      454.283    -243.932     177.647
  H      458.242    -249.548     179.154
  H      454.253    -242.510     176.568
  P      450.993    -246.650     176.117
  C      451.271    -248.577     174.391
  O      451.399    -248.162     175.751
  O      449.600    -246.443     175.359
  O      450.888    -246.355     177.582
  H      448.855    -246.436     175.993
  H      451.575    -249.599     174.300
  H      451.891    -247.964     173.771
  H      450.251    -248.480     174.083

 6  7  8  9  10  11  12  13  14  15  16  26  30  31  32  33  35 0
 6-311+G(2d,p)
 ****
 37  38 0
 6-311+G(2d,p)
 ****
 1  2  3  4  5  17  18  19  20  21  22  23  24  25 0
 3-21G
 ****
 27  28  29  34  36  39  40  41  42  43  44  45  46 0
 3-21G
 ****


