%nproc=1
%NoSave
%Mem=1900MB
#P OB98/GEN NMR

erre ene a

0 1
  C      623.488    -191.252     -45.610
  O      623.538    -189.844     -45.484
  H      623.603    -191.512     -46.667
  H      622.524    -191.622     -45.260
  H      624.299    -191.713     -45.037
  P      623.564    -189.249     -43.996
  C      621.786    -188.954     -42.079
  O      622.062    -189.358     -43.424
  C      620.466    -188.184     -42.030
  O      619.376    -188.984     -42.542
  C      620.021    -187.821     -40.620
  O      620.808    -186.808     -40.042
  C      618.581    -187.412     -40.895
  O      618.517    -186.083     -41.427
  C      618.162    -188.448     -41.962
  N      617.319    -189.505     -41.416
  C      616.316    -189.988     -42.277
  O      616.199    -189.540     -43.417
  N      615.456    -190.964     -41.799
  C      615.597    -191.418     -40.598
  N      614.717    -192.373     -40.183
  C      616.656    -190.954     -39.674
  C      617.458    -190.008     -40.142
  O      623.737    -187.676     -44.244
  O      624.586    -189.844     -43.084
  H      617.569    -185.894     -41.602
  H      623.067    -187.304     -44.861
  H      616.741    -191.382     -38.679
  H      618.267    -189.600     -39.527
  H      617.606    -187.959     -42.785
  H      617.979    -187.415     -39.988
  H      619.995    -188.717     -39.992
  H      620.567    -187.291     -42.665
  H      613.990    -192.649     -40.843
  H      622.609    -188.348     -41.676
  H      614.709    -192.778     -39.256
  H      621.718    -189.862     -41.470
  P      620.983    -186.719     -38.451
  C      619.510    -185.946     -36.479
  O      619.666    -185.985     -37.901
  O      622.258    -186.124     -37.981
  O      620.749    -188.231     -37.963
  H      619.878    -188.607     -38.194
  H      618.602    -185.435     -36.234
  H      620.339    -185.429     -36.043
  H      619.472    -186.945     -36.097

 6  7  8  9  10  11  12  13  14  15  16  26  30  31  32  33  35 0
 6-311+G(2d,p)
 ****
 37  38 0
 6-311+G(2d,p)
 ****
 1  2  3  4  5  17  18  19  20  21  22  23  24  25 0
 3-21G
 ****
 27  28  29  34  36  39  40  41  42  43  44  45  46 0
 3-21G
 ****


