%nproc=1
%NoSave
%Mem=1900MB
#P OB98/GEN NMR

erre ene a

0 1
  C     -110.834     -49.185    -268.519
  O     -110.326     -48.897    -267.213
  P     -110.521     -49.978    -266.045
  C     -112.062     -50.232    -264.004
  O     -111.928     -49.710    -265.319
  C     -113.498     -50.684    -263.699
  O     -114.372     -49.541    -263.506
  C     -114.129     -51.560    -264.792
  O     -114.958     -52.522    -264.130
  C     -114.972     -50.562    -265.559
  O     -115.969     -51.188    -266.352
  C     -115.486     -49.691    -264.408
  N     -115.991     -48.406    -264.862
  C     -117.361     -48.308    -265.113
  O     -118.071     -49.312    -265.048
  N     -117.881     -47.085    -265.458
  C     -117.078     -46.089    -265.683
  N     -117.632     -44.891    -266.007
  C     -115.610     -46.206    -265.605
  C     -115.143     -47.372    -265.170
  O     -109.358     -50.144    -265.125
  O     -110.803     -51.334    -266.862
  H     -116.565     -51.702    -265.768
  H     -110.411     -52.082    -266.372
  H     -114.978     -45.372    -265.882
  H     -114.081     -47.551    -265.069
  H     -116.284     -50.207    -263.857
  H     -114.330     -49.975    -266.226
  H     -113.393     -52.087    -265.407
  H     -113.478     -51.240    -262.753
  H     -118.640     -44.831    -266.080
  H     -111.769     -49.462    -263.284
  H     -117.077     -44.054    -266.145
  H     -111.353     -51.056    -263.874
  P     -115.284     -53.909    -264.871
  C     -117.144     -54.794    -266.454
  O     -116.684     -53.743    -265.632
  O     -115.692     -54.851    -263.636
  O     -114.158     -54.526    -265.635
  H     -115.531     -55.782    -263.882
  H     -118.211     -54.638    -266.658
  H     -117.026     -55.764    -265.965
  H     -116.600     -54.791    -267.402
  H     -110.621     -48.366    -269.173
  H     -111.892     -49.333    -268.465
  H     -110.369     -50.072    -268.895

 3  4  5  6  7  8  9  10  11  12  13  23  27  28  29  30  32 0
 6-311+G(2d,p)
 ****
 34  35 0
 6-311+G(2d,p)
 ****
 1  2  14  15  16  17  18  19  20  21  22  24  25  26 0
 3-21G
 ****
 31  33  36  37  38  39  40  41  42  43  44  45  46 0
 3-21G
 ****


