%nproc=1
%NoSave
%Mem=1900MB
#P OB98/GEN NMR

erre ene a

0 1
  C       -1.976    -143.417    -208.711
  O       -2.738    -142.449    -209.420
  P       -2.293    -140.911    -209.292
  C       -4.576    -140.086    -208.367
  O       -3.643    -140.056    -209.442
  C       -5.885    -139.416    -208.775
  O       -5.641    -138.055    -209.182
  C       -6.592    -140.076    -209.950
  O       -7.356    -141.203    -209.553
  C       -7.507    -138.949    -210.402
  O       -8.662    -138.881    -209.543
  C       -6.622    -137.715    -210.198
  N       -7.269    -136.142    -215.020
  C       -8.148    -136.555    -214.084
  N       -7.897    -136.971    -212.824
  C       -6.576    -136.967    -212.578
  C       -5.559    -136.607    -213.449
  C       -5.946    -136.165    -214.723
  N       -5.051    -135.715    -215.666
  N       -4.332    -136.735    -212.837
  C       -4.598    -137.157    -211.620
  N       -5.941    -137.301    -211.410
  O       -1.529    -140.640    -210.672
  O       -1.444    -140.597    -208.108
  H       -9.176    -139.697    -209.695
  H       -0.911    -139.891    -210.571
  H       -9.195    -136.545    -214.381
  H       -3.859    -137.358    -210.857
  H       -7.187    -136.853    -209.826
  H       -7.878    -139.086    -211.424
  H       -5.887    -140.320    -210.753
  H       -6.540    -139.393    -207.895
  H       -4.153    -139.551    -207.512
  H       -5.418    -135.244    -216.479
  H       -4.096    -135.545    -215.372
  H       -4.753    -141.126    -208.077
  P       -7.188    -142.536    -210.434
  C       -9.755    -142.885    -210.213
  O       -8.461    -143.440    -210.076
  O       -5.965    -143.286    -209.728
  O       -6.941    -142.283    -211.883
  H       -5.512    -143.872    -210.363
  H      -10.485    -143.697    -210.237
  H       -9.842    -142.312    -211.141
  H       -9.973    -142.238    -209.360
  H       -2.383    -144.391    -208.887
  H       -2.010    -143.200    -207.664
  H       -0.961    -143.389    -209.048

 3  4  5  6  7  8  9  10  11  12  22  25  29  30  31  32 0
 6-311+G(2d,p)
 ****
 33  36  37 0
 6-311+G(2d,p)
 ****
 1  2  13  14  15  16  17  18  19  20  21  23  24  26 0
 3-21G
 ****
 27  28  34  35  38  39  40  41  42  43  44  45  46  47  48 0
 3-21G
 ****


