%nproc=1
%NoSave
%Mem=1900MB
#P OB98/GEN NMR

erre ene a

0 1
  C     -187.704     111.443    -396.666
  O     -187.180     111.799    -397.949
  P     -185.775     111.124    -398.346
  C     -184.319     113.273    -398.424
  O     -184.603     112.054    -397.746
  C     -183.379     114.154    -397.591
  O     -184.099     114.786    -396.488
  C     -182.195     113.382    -396.977
  O     -181.074     114.277    -396.974
  C     -182.693     113.129    -395.556
  O     -181.651     112.765    -394.660
  C     -183.371     114.474    -395.285
  N     -183.662     115.186    -390.232
  C     -182.627     115.280    -391.100
  N     -182.630     115.071    -392.437
  C     -183.866     114.740    -392.853
  C     -185.014     114.605    -392.091
  C     -184.883     114.845    -390.717
  N     -185.925     114.733    -389.821
  N     -186.095     114.231    -392.892
  C     -185.568     114.062    -394.095
  N     -184.252     114.443    -394.139
  O     -185.679     111.360    -399.925
  O     -185.676     109.681    -397.968
  H     -181.110     112.051    -395.052
  H     -185.944     110.550    -400.405
  H     -181.666     115.555    -390.661
  H     -186.093     113.686    -394.962
  H     -182.648     115.278    -395.110
  H     -183.420     112.317    -395.560
  H     -181.934     112.472    -397.523
  H     -182.999     114.960    -398.240
  H     -185.246     113.824    -398.612
  H     -185.732     114.928    -388.845
  H     -186.848     114.468    -390.135
  H     -183.889     113.045    -399.409
  P     -179.743     113.841    -397.775
  C     -178.805     113.023    -395.533
  O     -179.092     112.682    -396.875
  O     -178.784     115.083    -397.441
  O     -179.913     113.579    -399.241
  H     -178.771     115.268    -396.482
  H     -178.438     112.130    -395.018
  H     -179.707     113.383    -395.033
  H     -178.021     113.797    -395.495
  H     -188.635     111.947    -396.509
  H     -187.009     111.731    -395.905
  H     -187.860     110.385    -396.625

 3  4  5  6  7  8  9  10  11  12  22  25  29  30  31  32 0
 6-311+G(2d,p)
 ****
 33  36  37 0
 6-311+G(2d,p)
 ****
 1  2  13  14  15  16  17  18  19  20  21  23  24  26 0
 3-21G
 ****
 27  28  34  35  38  39  40  41  42  43  44  45  46  47  48 0
 3-21G
 ****


