%nproc=1
%NoSave
%Mem=1900MB
#P OB98/GEN NMR

erre ene a

0 1
  C       27.952     143.753     257.193
  O       28.851     144.794     256.872
  H       27.070     143.843     256.552
  H       27.636     143.823     258.236
  H       28.416     142.780     257.009
  P       30.181     144.952     257.752
  C       30.823     146.210     259.918
  O       29.779     145.821     259.037
  C       30.257     146.921     261.155
  O       29.730     148.216     260.750
  C       29.113     146.156     261.840
  O       29.157     146.483     263.236
  C       27.900     146.782     261.183
  O       26.717     146.477     261.881
  C       28.337     148.250     261.132
  N       27.535     149.041     260.212
  C       26.344     149.563     260.722
  O       26.012     149.333     261.885
  N       25.541     150.303     259.892
  C       25.864     150.452     258.646
  N       25.017     151.185     257.875
  C       27.086     149.868     258.053
  C       27.870     149.185     258.886
  O       31.390     145.435     257.021
  O       30.414     143.489     258.362
  H       26.470     145.533     261.756
  H       31.148     143.051     257.894
  H       27.300     150.006     257.004
  H       28.787     148.718     258.543
  H       28.279     148.708     262.129
  H       27.769     146.394     260.167
  H       29.179     145.074     261.703
  H       31.078     147.117     261.854
  H       24.186     151.557     258.320
  H       31.483     146.887     259.368
  H       25.155     151.350     256.889
  H       31.399     145.333     260.231
  P       29.749     145.486     264.345
  C       28.946     143.444     265.702
  O       28.565     144.578     264.927
  O       30.568     146.165     265.395
  O       30.649     144.441     263.527
  H       31.386     144.144     264.093
  H       28.069     142.925     266.029
  H       29.509     143.766     266.553
  H       29.546     142.789     265.105

 6  7  8  9  10  11  12  13  14  15  16  26  30  31  32  33  35 0
 6-311+G(2d,p)
 ****
 37  38 0
 6-311+G(2d,p)
 ****
 1  2  3  4  5  17  18  19  20  21  22  23  24  25 0
 3-21G
 ****
 27  28  29  34  36  39  40  41  42  43  44  45  46 0
 3-21G
 ****


