%nproc=1
%NoSave
%Mem=1900MB
#P OB98/GEN NMR

erre ene a

0 1
  C     -487.827     150.253    -272.398
  O     -487.581     149.317    -273.451
  P     -488.756     148.633    -274.303
  C     -487.101     148.267    -276.250
  O     -488.113     147.695    -275.434
  C     -485.897     147.334    -276.408
  O     -485.053     147.392    -275.238
  C     -486.253     145.858    -276.580
  O     -486.723     145.592    -277.887
  C     -484.924     145.197    -276.229
  O     -484.034     145.195    -277.355
  C     -484.392     146.112    -275.112
  N     -484.587     145.551    -273.782
  C     -483.696     144.540    -273.397
  O     -482.852     144.118    -274.191
  N     -483.817     143.999    -272.138
  C     -484.778     144.388    -271.360
  N     -484.836     143.828    -270.123
  C     -485.782     145.396    -271.755
  C     -485.624     145.927    -272.965
  O     -489.770     149.599    -274.822
  O     -489.438     147.586    -273.296
  H     -484.532     144.817    -278.103
  H     -490.385     147.504    -273.519
  H     -486.584     145.668    -271.087
  H     -486.316     146.675    -273.332
  H     -483.321     146.312    -275.257
  H     -485.046     144.157    -275.911
  H     -487.007     145.573    -275.830
  H     -485.311     147.682    -277.267
  H     -484.130     143.149    -269.877
  H     -486.768     149.205    -275.780
  H     -485.543     144.062    -269.431
  H     -487.528     148.507    -277.232
  P     -488.211     145.029    -278.094
  C     -488.405     146.832    -279.917
  O     -488.695     145.495    -279.550
  O     -489.173     145.308    -276.987
  O     -487.997     143.455    -278.285
  H     -488.778     142.984    -277.929
  H     -488.415     146.907    -281.012
  H     -487.427     147.142    -279.537
  H     -489.171     147.498    -279.513
  H     -486.895     150.571    -271.979
  H     -488.420     149.788    -271.638
  H     -488.350     151.101    -272.789

 3  4  5  6  7  8  9  10  11  12  13  23  27  28  29  30  32 0
 6-311+G(2d,p)
 ****
 34  35 0
 6-311+G(2d,p)
 ****
 1  2  14  15  16  17  18  19  20  21  22  24  25  26 0
 3-21G
 ****
 31  33  36  37  38  39  40  41  42  43  44  45  46 0
 3-21G
 ****


