%nproc=1
%NoSave
%Mem=1900MB
#P OB98/GEN NMR

erre ene a

0 1
  C     -229.690     293.603     620.649
  O     -229.262     293.273     621.970
  P     -229.382     294.240     623.237
  C     -231.096     292.722     624.519
  O     -230.803     293.978     623.927
  C     -231.593     292.845     625.976
  O     -232.767     293.698     626.011
  C     -232.031     291.482     626.507
  O     -231.070     290.590     627.032
  C     -233.173     291.795     627.455
  O     -232.747     291.923     628.809
  C     -233.715     293.125     626.935
  N     -238.796     292.995     627.545
  C     -237.803     293.063     628.500
  N     -238.209     293.040     629.787
  N     -236.527     293.125     628.225
  C     -236.258     293.044     626.900
  C     -237.145     292.957     625.856
  C     -238.564     292.945     626.175
  O     -239.483     292.903     625.367
  N     -236.509     292.879     624.644
  C     -235.228     292.897     624.957
  N     -235.028     293.006     626.317
  O     -228.988     295.659     623.001
  O     -228.336     293.607     624.288
  H     -232.438     291.046     629.115
  H     -227.973     294.361     624.804
  H     -239.760     292.973     627.814
  H     -234.413     292.833     624.251
  H     -233.828     293.854     627.751
  H     -233.919     290.984     627.442
  H     -239.159     292.876     630.071
  H     -232.487     290.940     625.666
  H     -237.482     292.880     630.487
  H     -230.842     293.339     626.598
  H     -230.181     292.134     624.474
  H     -231.842     292.191     623.917
  P     -230.462     289.300     626.283
  C     -228.581     290.275     624.837
  O     -229.913     289.776     624.862
  O     -231.749     288.435     625.897
  O     -229.505     288.495     627.099
  H     -231.486     287.518     625.678
  H     -228.427     290.843     623.918
  H     -227.878     289.440     624.862
  H     -228.398     290.932     625.695
  H     -229.494     292.780     619.994
  H     -229.157     294.465     620.306
  H     -230.739     293.811     620.656

 3  4  5  6  7  8  9  10  11  12  23  26  30  31 0
 6-311+G(2d,p)
 ****
 33  35  36  37  38 0
 6-311+G(2d,p)
 ****
 1  2  13  14  15  16  17  18  19  20  21  22  24  25 0
 3-21G
 ****
 27  28  29  32  34  39  40  41  42  43  44  45  46  47  48  49 0
 3-21G
 ****


