%nproc=1
%NoSave
%Mem=1900MB
#P OB98/GEN NMR

erre ene a

0 1
  C     -114.691    -899.011     577.134
  O     -113.309    -899.101     576.866
  H     -115.230    -899.571     576.361
  H     -115.035    -897.971     577.111
  H     -114.915    -899.461     578.109
  P     -112.314    -898.151     577.701
  C     -112.454    -896.201     576.002
  O     -111.624    -897.191     576.612
  C     -111.763    -895.571     574.791
  O     -110.581    -894.861     575.204
  C     -111.275    -896.591     573.768
  O     -112.304    -897.251     573.072
  C     -110.222    -895.801     572.993
  O     -110.770    -895.031     571.935
  C     -109.664    -894.861     574.083
  N     -108.308    -895.221     574.493
  C     -107.299    -894.841     573.617
  O     -107.500    -894.251     572.553
  N     -106.027    -895.201     573.987
  C     -105.694    -895.931     575.080
  O     -104.537    -896.261     575.331
  C     -106.819    -896.341     575.957
  C     -108.055    -895.971     575.622
  O     -111.342    -898.851     578.598
  O     -113.301    -897.161     578.478
  H     -111.384    -894.371     572.357
  H     -112.844    -896.701     579.222
  H     -105.280    -894.911     573.378
  H     -106.587    -896.921     576.836
  H     -108.905    -896.261     576.246
  H     -109.644    -893.821     573.719
  H     -109.467    -896.461     572.560
  H     -110.723    -897.381     574.309
  H     -112.451    -894.861     574.324
  H     -112.645    -895.431     576.754
  H     -113.408    -896.661     575.707
  P     -112.561    -898.821     573.160
  C     -110.376    -899.491     571.931
  O     -111.790    -899.541     571.928
  O     -113.965    -899.261     573.483
  O     -111.637    -899.221     574.417
  H     -112.089    -899.951     574.900
  H     -109.999    -900.000     571.069
  H     -110.004    -899.964     572.816
  H     -110.055    -898.470     571.911

 6  7  8  9  10  11  12  13  14  15  16  26  31  32  33  34  35 0
 6-311+G(2d,p)
 ****
 36  37 0
 6-311+G(2d,p)
 ****
 1  2  3  4  5  17  18  19  20  21  22  23  24  25 0
 3-21G
 ****
 27  28  29  30  38  39  40  41  42  43  44  45 0
 3-21G
 ****


