%nproc=1
%NoSave
%Mem=1900MB
#P OB98/GEN NMR

erre ene a

0 1
  C      -49.009     333.573     294.902
  O      -49.205     333.512     293.487
  P      -48.182     332.643     292.602
  C      -46.842     334.284     291.130
  O      -46.866     333.519     292.329
  C      -45.413     334.387     290.577
  O      -44.987     333.104     290.018
  C      -45.292     335.425     289.455
  O      -43.986     336.037     289.483
  C      -45.374     334.579     288.199
  O      -44.822     335.257     287.070
  C      -44.613     333.328     288.647
  N      -44.952     331.488     283.882
  C      -44.542     332.685     284.354
  N      -44.452     333.093     285.637
  C      -44.847     332.117     286.471
  C      -45.286     330.844     286.131
  C      -45.347     330.547     284.761
  N      -45.806     329.338     284.280
  N      -45.606     330.126     287.269
  C      -45.408     330.951     288.259
  N      -44.921     332.160     287.838
  O      -48.764     331.998     291.390
  O      -47.654     331.543     293.643
  H      -44.891     334.650     286.305
  H      -47.610     330.675     293.191
  H      -44.242     333.405     283.601
  H      -45.620     330.745     289.307
  H      -43.531     333.478     288.617
  H      -46.432     334.354     287.982
  H      -46.051     336.212     289.479
  H      -44.729     334.615     291.400
  H      -47.231     335.288     291.332
  H      -45.920     329.246     283.278
  H      -46.228     328.677     284.920
  H      -47.522     333.834     290.407
  P      -43.882     337.412     290.312
  C      -45.075     338.822     288.459
  O      -45.071     338.345     289.787
  O      -42.517     338.018     290.292
  O      -44.347     336.949     291.778
  H      -45.191     336.454     291.789
  H      -46.030     339.321     288.265
  H      -44.963     337.998     287.747
  H      -44.261     339.535     288.322
  H      -49.768     334.186     295.341
  H      -48.047     333.992     295.111
  H      -49.066     332.587     295.313

 3  4  5  6  7  8  9  10  11  12  22  25  29  30  31  32 0
 6-311+G(2d,p)
 ****
 33  36  37 0
 6-311+G(2d,p)
 ****
 1  2  13  14  15  16  17  18  19  20  21  23  24  26 0
 3-21G
 ****
 27  28  34  35  38  39  40  41  42  43  44  45  46  47  48 0
 3-21G
 ****


