%nproc=1
%NoSave
%Mem=1900MB
#P OB98/GEN NMR

erre ene a

0 1
  C      112.833     345.182     -95.223
  O      114.173     345.415     -94.845
  H      112.808     344.331     -95.911
  H      112.423     346.056     -95.734
  H      112.223     344.941     -94.348
  P      114.486     346.622     -93.833
  C      114.588     348.343     -95.771
  O      113.920     347.925     -94.589
  C      113.850     349.517     -96.408
  O      112.498     349.162     -96.757
  C      113.704     350.742     -95.515
  O      114.908     351.477     -95.343
  C      112.663     351.519     -96.297
  O      113.278     352.132     -97.446
  C      111.700     350.378     -96.715
  N      110.573     350.228     -95.795
  C      109.707     351.322     -95.679
  O      109.909     352.353     -96.317
  N      108.648     351.238     -94.808
  C      108.478     350.161     -94.100
  N      107.416     350.135     -93.250
  C      109.376     348.995     -94.178
  C      110.393     349.093     -95.037
  O      115.897     346.723     -93.349
  O      113.416     346.444     -92.656
  H      113.846     352.847     -97.114
  H      113.574     347.161     -91.994
  H      109.213     348.134     -93.542
  H      111.096     348.277     -95.143
  H      111.313     350.548     -97.728
  H      112.190     352.315     -95.724
  H      113.273     350.470     -94.543
  H      114.371     349.762     -97.344
  H      106.817     350.949     -93.220
  H      114.632     347.490     -96.458
  H      107.251     349.372     -92.606
  H      115.605     348.662     -95.534
  P      115.370     351.775     -93.831
  C      114.349     354.179     -93.800
  O      114.347     352.868     -93.256
  O      116.736     352.580     -94.027
  O      115.528     350.566     -92.968
  H      117.504     351.987     -93.915
  H      113.610     354.772     -93.303
  H      114.125     354.132     -94.845
  H      115.313     354.621     -93.661

 6  7  8  9  10  11  12  13  14  15  16  26  30  31  32  33  35 0
 6-311+G(2d,p)
 ****
 37  38 0
 6-311+G(2d,p)
 ****
 1  2  3  4  5  17  18  19  20  21  22  23  24  25 0
 3-21G
 ****
 27  28  29  34  36  39  40  41  42  43  44  45  46 0
 3-21G
 ****


