%nproc=1
%NoSave
%Mem=1900MB
#P OB98/GEN NMR

erre ene a

0 1
  C      -27.783    -153.506    -310.586
  O      -28.746    -153.752    -309.579
  H      -27.709    -154.367    -311.255
  H      -28.093    -152.632    -311.165
  H      -26.808    -153.301    -310.134
  P      -28.472    -155.015    -308.628
  C      -30.185    -156.893    -309.120
  O      -28.929    -156.320    -309.451
  C      -30.333    -158.256    -309.793
  O      -29.974    -158.110    -311.192
  C      -29.448    -159.356    -309.185
  O      -30.221    -160.527    -308.899
  C      -28.457    -159.687    -310.286
  O      -28.091    -161.063    -310.311
  C      -29.206    -159.269    -311.547
  N      -25.536    -161.221    -314.505
  C      -26.504    -161.814    -313.768
  N      -27.510    -161.235    -313.080
  C      -27.481    -159.900    -313.230
  C      -26.573    -159.157    -313.968
  C      -25.550    -159.870    -314.608
  N      -24.531    -159.262    -315.309
  N      -26.862    -157.805    -313.877
  C      -27.897    -157.735    -313.064
  N      -28.297    -158.975    -312.637
  O      -29.596    -154.871    -307.494
  O      -27.102    -155.066    -308.040
  H      -27.591    -161.243    -309.495
  H      -29.158    -154.767    -306.628
  H      -26.456    -162.901    -313.721
  H      -28.364    -156.820    -312.718
  H      -29.905    -160.045    -311.881
  H      -27.548    -159.088    -310.143
  H      -28.935    -159.030    -308.274
  H      -31.390    -158.551    -309.760
  H      -30.993    -156.234    -309.466
  H      -23.776    -159.840    -315.641
  H      -24.476    -158.249    -315.296
  H      -30.255    -156.995    -308.030
  P      -31.066    -160.506    -307.530
  C      -29.564    -161.949    -305.976
  O      -30.034    -160.645    -306.307
  O      -31.837    -161.909    -307.556
  O      -32.021    -159.360    -307.430
  H      -32.798    -161.763    -307.478
  H      -28.889    -161.885    -305.148
  H      -29.056    -162.370    -306.819
  H      -30.394    -162.571    -305.713

 6  7  8  9  10  11  12  13  14  15  25  28  32  33  34  35 0
 6-311+G(2d,p)
 ****
 36  39  40 0
 6-311+G(2d,p)
 ****
 1  2  3  4  5  16  17  18  19  20  21  22  23  24 0
 3-21G
 ****
 26  27  29  30  31  37  38  41  42  43  44  45  46  47  48 0
 3-21G
 ****


