%nproc=1
%NoSave
%Mem=1900MB
#P OB98/GEN NMR

erre ene a

0 1
  C     -218.208     107.700    -329.779
  O     -216.836     107.317    -329.891
  P     -216.246     106.890    -331.318
  C     -214.543     105.193    -330.354
  O     -214.737     106.373    -331.138
  C     -213.108     104.683    -330.533
  O     -212.827     104.348    -331.917
  C     -212.057     105.723    -330.166
  O     -211.941     106.057    -328.795
  C     -210.821     105.186    -330.858
  O     -210.165     104.190    -330.083
  C     -211.423     104.577    -332.145
  N     -211.206     105.412    -333.329
  C     -209.881     105.558    -333.736
  O     -208.930     105.065    -333.135
  N     -209.689     106.332    -334.852
  C     -210.660     106.975    -335.559
  O     -210.427     107.674    -336.543
  C     -212.032     106.802    -335.069
  C     -212.242     106.040    -333.989
  O     -216.451     107.875    -332.423
  O     -217.041     105.528    -331.635
  H     -210.025     104.554    -329.188
  H     -217.275     105.534    -332.582
  H     -208.736     106.446    -335.168
  H     -212.832     107.308    -335.602
  H     -213.248     105.897    -333.606
  H     -210.973     103.592    -332.349
  H     -210.083     105.982    -331.039
  H     -212.328     106.663    -330.674
  H     -212.987     103.770    -329.940
  H     -215.257     104.428    -330.663
  H     -214.759     105.423    -329.308
  P     -212.403     107.469    -328.195
  C     -211.473     107.617    -325.775
  O     -212.575     107.312    -326.605
  O     -213.470     108.215    -328.928
  O     -211.029     108.315    -328.290
  H     -211.264     109.252    -328.461
  H     -211.764     107.441    -324.732
  H     -211.193     108.664    -325.891
  H     -210.622     106.975    -326.020
  H     -218.426     107.951    -328.762
  H     -218.832     106.887    -330.087
  H     -218.394     108.549    -330.404

 3  4  5  6  7  8  9  10  11  12  13  23  28  29  30  31  32 0
 6-311+G(2d,p)
 ****
 33  34 0
 6-311+G(2d,p)
 ****
 1  2  14  15  16  17  18  19  20  21  22  24  25  26  27 0
 3-21G
 ****
 35  36  37  38  39  40  41  42  43  44  45 0
 3-21G
 ****


