%nproc=1
%NoSave
%Mem=1900MB
#P OB98/GEN NMR

erre ene a

0 1
  C      154.829     -29.403     -54.941
  O      155.285     -30.140     -53.826
  H      155.304     -29.806     -55.842
  H      155.111     -28.352     -54.841
  H      153.745     -29.489     -55.049
  P      154.618     -29.863     -52.394
  C      154.883     -28.095     -50.537
  O      155.431     -28.655     -51.724
  C      155.997     -27.807     -49.534
  O      156.637     -29.040     -49.138
  C      157.114     -26.931     -50.090
  O      156.720     -25.574     -50.172
  C      158.227     -27.224     -49.098
  O      158.079     -26.437     -47.909
  C      158.005     -28.721     -48.793
  N      158.945     -29.575     -49.518
  C      160.154     -29.837     -48.880
  O      160.443     -29.402     -47.767
  N      161.059     -30.574     -49.599
  C      160.927     -30.940     -50.908
  O      161.855     -31.377     -51.582
  C      159.607     -30.691     -51.510
  C      158.695     -30.020     -50.802
  O      154.431     -31.063     -51.525
  O      153.212     -29.185     -52.760
  H      152.502     -29.850     -52.668
  H      158.876     -26.616     -47.368
  H      161.956     -30.732     -49.158
  H      159.438     -31.033     -52.525
  H      157.725     -29.793     -51.236
  H      158.113     -28.915     -47.719
  H      159.209     -27.005     -49.522
  H      157.416     -27.298     -51.079
  H      155.551     -27.352     -48.640
  H      154.177     -28.814     -50.102
  H      154.344     -27.175     -50.792
  P      157.088     -24.701     -51.463
  C      159.199     -23.946     -52.721
  O      158.685     -24.597     -51.564
  O      156.366     -23.399     -51.578
  O      156.721     -25.660     -52.695
  H      156.167     -25.165     -53.328
  H      160.268     -23.936     -52.679
  H      158.834     -22.941     -52.756
  H      158.881     -24.472     -53.597

 6  7  8  9  10  11  12  13  14  15  16  27  31  32  33  34  35 0
 6-311+G(2d,p)
 ****
 36  37 0
 6-311+G(2d,p)
 ****
 1  2  3  4  5  17  18  19  20  21  22  23  24  25 0
 3-21G
 ****
 26  28  29  30  38  39  40  41  42  43  44  45 0
 3-21G
 ****


