%nproc=1
%NoSave
%Mem=1900MB
#P OB98/GEN NMR

erre ene a

0 1
  C       58.212      19.947    -334.192
  O       57.998      19.340    -332.931
  H       59.021      20.677    -334.098
  H       57.313      20.470    -334.529
  H       58.500      19.195    -334.930
  P       56.755      18.341    -332.772
  C       58.030      16.563    -331.391
  O       57.008      17.554    -331.400
  C       58.270      16.072    -329.967
  O       58.986      17.069    -329.209
  C       56.983      15.811    -329.198
  O       56.386      14.598    -329.610
  C       57.494      15.837    -327.769
  O       58.114      14.595    -327.414
  C       58.539      16.976    -327.837
  N       58.009      18.254    -327.370
  C       58.251      18.564    -326.027
  O       58.877      17.786    -325.311
  N       57.750      19.741    -325.529
  C       57.088      20.544    -326.301
  N       56.620      21.693    -325.746
  C       56.824      20.261    -327.725
  C       57.306      19.109    -328.187
  O       56.445      17.458    -333.942
  O       55.535      19.314    -332.413
  H       58.343      14.672    -326.467
  H       55.090      19.616    -333.225
  H       56.273      20.961    -328.334
  H       57.160      18.824    -329.225
  H       59.419      16.726    -327.232
  H       56.688      16.021    -327.060
  H       56.292      16.648    -329.327
  H       58.895      15.170    -330.012
  H       56.816      21.842    -324.762
  H       58.936      17.031    -331.789
  H       56.171      22.430    -326.267
  H       57.760      15.722    -332.039
  P       54.915      14.203    -329.107
  C       53.919      13.807    -331.454
  O       54.336      13.209    -330.228
  O       54.033      15.349    -328.748
  O       55.208      13.217    -327.877
  H       55.520      13.714    -327.082
  H       53.555      13.048    -332.115
  H       54.749      14.307    -331.907
  H       53.140      14.514    -331.259

 6  7  8  9  10  11  12  13  14  15  16  26  30  31  32  33  35 0
 6-311+G(2d,p)
 ****
 37  38 0
 6-311+G(2d,p)
 ****
 1  2  3  4  5  17  18  19  20  21  22  23  24  25 0
 3-21G
 ****
 27  28  29  34  36  39  40  41  42  43  44  45  46 0
 3-21G
 ****


