%nproc=1
%NoSave
%Mem=1900MB
#P OB98/GEN NMR

erre ene a

0 1
  C     -487.528    -647.980    -959.242
  O     -487.818    -646.602    -959.288
  H     -488.470    -648.540    -959.197
  H     -486.941    -648.212    -958.346
  H     -486.973    -648.291    -960.136
  P     -486.559    -645.607    -959.330
  C     -486.332    -643.014    -959.376
  O     -487.151    -644.150    -959.663
  C     -486.775    -641.819    -960.217
  O     -486.433    -642.020    -961.605
  C     -488.273    -641.529    -960.169
  O     -488.617    -640.789    -959.008
  C     -488.464    -640.748    -961.459
  O     -488.087    -639.367    -961.288
  C     -487.511    -641.467    -962.416
  N     -489.561    -642.612    -966.892
  C     -488.953    -641.450    -966.461
  N     -488.946    -640.415    -967.332
  N     -488.427    -641.301    -965.270
  C     -488.536    -642.402    -964.498
  C     -489.088    -643.622    -964.812
  C     -489.646    -643.787    -966.143
  O     -490.143    -644.808    -966.615
  N     -489.003    -644.508    -963.771
  C     -488.427    -643.807    -962.804
  N     -488.135    -642.524    -963.195
  O     -485.800    -646.009    -960.688
  O     -485.649    -645.678    -958.152
  H     -488.702    -638.939    -960.665
  H     -484.851    -645.855    -960.579
  H     -489.935    -642.669    -967.817
  H     -488.192    -644.188    -961.821
  H     -487.050    -640.784    -963.138
  H     -489.508    -640.750    -961.777
  H     -489.605    -640.362    -968.086
  H     -488.845    -642.474    -960.224
  H     -488.527    -639.552    -967.017
  H     -486.208    -640.945    -959.863
  H     -485.293    -643.270    -959.628
  H     -486.402    -642.782    -958.313
  P     -490.132    -640.880    -958.478
  C     -491.269    -640.573    -956.165
  O     -490.053    -640.780    -956.883
  O     -490.513    -642.416    -958.732
  O     -491.083    -639.953    -959.151
  H     -491.478    -642.535    -958.710
  H     -491.061    -640.527    -955.116
  H     -491.941    -641.383    -956.360
  H     -491.717    -639.654    -956.480

 6  7  8  9  10  11  12  13  14  15  26  29  33  34 0
 6-311+G(2d,p)
 ****
 36  38  39  40  41 0
 6-311+G(2d,p)
 ****
 1  2  3  4  5  16  17  18  19  20  21  22  23  24  25 0
 3-21G
 ****
 27  28  30  31  32  35  37  42  43  44  45  46  47 0
 3-21G
 ****
 48  49 0
 3-21G
 ****


