%nproc=1
%NoSave
%Mem=1900MB
#P OB98/GEN NMR

erre ene a

0 1
  C      -29.285     264.085      30.855
  O      -30.218     264.088      31.922
  P      -31.060     265.436      32.162
  C      -30.514     266.846      34.279
  O      -30.095     266.411      32.989
  C      -30.071     265.841      35.345
  O      -28.667     265.570      35.219
  C      -30.273     266.329      36.773
  O      -31.630     266.219      37.151
  C      -29.341     265.395      37.539
  O      -30.002     264.169      37.881
  C      -28.203     265.147      36.520
  N      -26.966     265.818      36.887
  C      -26.532     265.615      38.204
  O      -27.202     264.920      38.977
  N      -25.381     266.242      38.625
  C      -24.727     267.001      37.800
  N      -23.588     267.585      38.266
  C      -25.161     267.254      36.413
  C      -26.280     266.647      36.027
  O      -32.157     264.995      33.239
  O      -31.671     266.018      30.927
  H      -30.893     264.432      38.203
  H      -32.956     265.551      33.170
  H      -24.578     267.897      35.769
  H      -26.671     266.777      35.027
  H      -27.990     264.072      36.440
  H      -28.999     265.843      38.480
  H      -29.929     267.363      36.876
  H      -30.620     264.902      35.182
  H      -23.319     267.396      39.225
  H      -31.607     266.924      34.301
  H      -22.996     268.174      37.697
  H      -30.088     267.833      34.477
  P      -32.203     267.288      38.199
  C      -32.667     266.121      40.437
  O      -31.704     266.769      39.630
  O      -33.762     266.921      38.234
  O      -31.968     268.731      37.896
  H      -34.236     267.583      38.776
  H      -32.161     265.681      41.299
  H      -33.160     265.319      39.876
  H      -33.405     266.844      40.786
  H      -28.798     263.133      30.809
  H      -28.556     264.851      31.017
  H      -29.797     264.269      29.933

 3  4  5  6  7  8  9  10  11  12  13  21  23  27  28  29  30  32 0
 6-311+G(2d,p)
 ****
 34  35 0
 6-311+G(2d,p)
 ****
 1  2  14  15  16  17  18  19  20  22  24  25  26 0
 3-21G
 ****
 31  33  36  37  38  39  40  41  42  43  44  45  46 0
 3-21G
 ****


