%nproc=1
%NoSave
%Mem=1900MB
#P OB98/GEN NMR

erre ene a

0 1
  C     -189.601    -871.855    -163.155
  O     -190.972    -872.146    -163.355
  P     -192.068    -870.991    -163.178
  C     -192.566    -870.803    -165.689
  O     -192.093    -870.128    -164.531
  C     -193.944    -870.264    -166.084
  O     -193.869    -868.852    -166.366
  C     -194.517    -870.898    -167.349
  O     -195.016    -872.196    -167.073
  C     -195.574    -869.873    -167.740
  O     -196.777    -870.069    -166.980
  C     -194.895    -868.555    -167.339
  N     -195.882    -865.499    -171.301
  C     -196.699    -866.145    -170.441
  N     -196.360    -866.983    -169.438
  C     -195.019    -867.126    -169.374
  C     -194.070    -866.552    -170.205
  C     -194.541    -865.676    -171.197
  N     -193.726    -864.963    -172.041
  N     -192.801    -866.976    -169.847
  C     -192.989    -867.790    -168.825
  N     -194.303    -867.855    -168.468
  O     -191.955    -870.188    -161.921
  O     -193.461    -871.772    -163.228
  H     -197.201    -870.884    -167.314
  H     -193.942    -871.640    -162.387
  H     -197.758    -865.974    -170.579
  H     -192.208    -868.336    -168.308
  H     -195.598    -867.863    -166.859
  H     -195.843    -869.933    -168.795
  H     -193.750    -870.944    -168.130
  H     -194.620    -870.410    -165.238
  H     -192.638    -871.869    -165.462
  H     -194.158    -864.259    -172.612
  H     -192.740    -864.850    -171.780
  H     -191.853    -870.661    -166.513
  P     -195.309    -873.208    -168.270
  C     -193.309    -874.693    -167.671
  O     -193.913    -873.890    -168.666
  O     -196.095    -872.648    -169.420
  O     -196.106    -874.409    -167.568
  H     -196.741    -874.793    -168.210
  H     -192.831    -874.054    -166.925
  H     -192.553    -875.324    -168.141
  H     -194.048    -875.326    -167.179
  H     -189.021    -872.740    -163.315
  H     -189.452    -871.508    -162.154
  H     -189.293    -871.097    -163.845

 3  4  5  6  7  8  9  10  11  12  22  25  29  30  31  32 0
 6-311+G(2d,p)
 ****
 33  36  37 0
 6-311+G(2d,p)
 ****
 1  2  13  14  15  16  17  18  19  20  21  23  24  26 0
 3-21G
 ****
 27  28  34  35  38  39  40  41  42  43  44  45  46  47  48 0
 3-21G
 ****


