%nproc=1
%NoSave
%Mem=1900MB
#P OB98/GEN NMR

erre ene a

0 1
  C       40.315    -205.781     -93.389
  O       40.193    -206.409     -94.659
  P       38.863    -207.262     -94.943
  C       39.926    -208.778     -96.766
  O       38.983    -207.754     -96.466
  C       39.487    -209.567     -97.997
  O       38.241    -210.243     -97.735
  C       39.240    -208.717     -99.236
  O       40.441    -208.414     -99.926
  C       38.379    -209.661    -100.061
  O       39.211    -210.643    -100.708
  C       37.511    -210.325     -98.988
  N       32.917    -209.648    -101.128
  C       34.029    -210.273    -101.566
  N       35.219    -210.400    -100.942
  C       35.205    -209.765     -99.759
  C       34.155    -209.054     -99.199
  C       32.958    -209.015     -99.930
  N       31.814    -208.404     -99.469
  N       34.518    -208.541     -97.974
  C       35.758    -208.938     -97.791
  N       36.216    -209.690     -98.836
  O       37.722    -206.142     -95.006
  O       38.562    -208.316     -93.933
  H       39.850    -210.153    -101.260
  H       36.852    -206.540     -94.808
  H       33.953    -210.741    -102.546
  H       36.358    -208.717     -96.918
  H       37.336    -211.388     -99.192
  H       37.822    -209.145    -100.851
  H       38.667    -207.816     -98.992
  H       40.250    -210.329     -98.198
  H       39.998    -209.458     -95.913
  H       30.954    -208.578     -99.963
  H       31.791    -208.111     -98.498
  H       40.906    -208.322     -96.935
  P       40.593    -206.916    -100.487
  C       42.159    -207.867    -102.333
  O       41.969    -206.911    -101.306
  O       40.919    -206.068     -99.172
  O       39.390    -206.410    -101.209
  H       40.645    -205.137     -99.290
  H       42.977    -207.535    -102.975
  H       41.258    -207.974    -102.944
  H       42.422    -208.833    -101.893
  H       41.244    -205.252     -93.341
  H       40.287    -206.524     -92.620
  H       39.506    -205.095     -93.251

 3  4  5  6  7  8  9  10  11  12  22  25  29  30  31  32 0
 6-311+G(2d,p)
 ****
 33  36  37 0
 6-311+G(2d,p)
 ****
 1  2  13  14  15  16  17  18  19  20  21  23  24  26 0
 3-21G
 ****
 27  28  34  35  38  39  40  41  42  43  44  45  46  47  48 0
 3-21G
 ****


