%nproc=1
%NoSave
%Mem=1900MB
#P OB98/GEN NMR

erre ene a

0 1
  C     -889.910     -38.125     180.565
  O     -890.340     -37.333     181.663
  H     -888.940     -38.550     180.807
  H     -889.820     -37.499     179.675
  H     -890.620     -38.937     180.384
  P     -891.840     -36.761     181.598
  C     -892.870     -38.014     183.660
  O     -892.760     -37.900     182.253
  C     -893.870     -39.113     184.031
  O     -895.190     -38.708     183.584
  C     -893.560     -40.469     183.405
  O     -893.900     -41.494     184.343
  C     -894.500     -40.534     182.209
  O     -894.770     -41.879     181.817
  C     -895.710     -39.746     182.731
  N     -896.530     -39.193     181.641
  C     -897.900     -39.375     181.728
  O     -898.380     -40.012     182.682
  N     -898.710     -38.895     180.728
  C     -898.160     -38.346     179.695
  N     -899.010     -37.907     178.720
  C     -896.710     -38.169     179.529
  C     -895.960     -38.595     180.544
  O     -892.160     -36.858     180.033
  O     -892.000     -35.398     182.180
  H     -895.380     -41.853     181.049
  H     -891.840     -37.682     179.623
  H     -896.300     -37.713     178.639
  H     -894.870     -38.507     180.507
  H     -896.360     -40.388     183.351
  H     -894.060     -40.019     181.353
  H     -892.520     -40.582     183.102
  H     -893.930     -39.177     185.127
  H     -900.000     -38.054     178.858
  H     -893.200     -37.058     184.095
  H     -898.700     -37.496     177.846
  H     -891.880     -38.253     184.060
  P     -892.920     -41.765     185.586
  C     -894.630     -41.110     187.400
  O     -893.370     -40.842     186.811
  O     -891.460     -41.752     185.279
  O     -893.380     -43.230     186.079
  H     -892.580     -43.716     186.338
  H     -894.802     -40.423     188.202
  H     -894.641     -42.110     187.779
  H     -895.399     -40.999     186.664

 6  7  8  9  10  11  12  13  14  15  16  26  30  31  32  33  35 0
 6-311+G(2d,p)
 ****
 37  38 0
 6-311+G(2d,p)
 ****
 1  2  3  4  5  17  18  19  20  21  22  23  24  25 0
 3-21G
 ****
 27  28  29  34  36  39  40  41  42  43  44  45  46 0
 3-21G
 ****


