%nproc=1
%NoSave
%Mem=1900MB
#P OB98/GEN NMR

erre ene a

0 1
  C      -70.632     507.980     450.079
  O      -70.114     506.639     450.012
  P      -70.440     505.700     448.746
  C      -72.444     504.237     449.367
  O      -72.024     505.425     448.693
  C      -73.728     503.628     448.776
  O      -73.494     503.085     447.454
  C      -74.360     502.506     449.612
  O      -75.772     502.630     449.428
  C      -73.822     501.258     448.942
  O      -74.584     500.094     449.254
  C      -73.859     501.688     447.464
  N      -72.947     500.887     446.648
  C      -73.271     500.755     445.287
  O      -74.319     501.228     444.852
  N      -72.430     500.038     444.482
  C      -71.408     499.432     444.992
  N      -70.636     498.704     444.139
  C      -71.062     499.470     446.424
  C      -71.864     500.224     447.177
  O      -69.586     504.482     448.649
  O      -70.201     506.671     447.484
  H      -75.525     500.281     449.050
  H      -69.903     506.135     446.722
  H      -70.221     498.932     446.825
  H      -71.697     500.334     448.247
  H      -74.876     501.609     447.059
  H      -72.777     501.071     449.268
  H      -74.103     502.548     450.681
  H      -74.443     504.452     448.655
  H      -70.903     498.675     443.164
  H      -72.613     504.468     450.432
  H      -69.873     498.103     444.447
  H      -71.636     503.500     449.328
  P      -76.736     503.308     450.513
  C      -77.504     501.211     451.792
  O      -76.691     502.360     451.818
  O      -78.099     503.634     450.042
  O      -75.946     504.629     450.979
  H      -76.583     505.227     451.433
  H      -77.241     500.549     452.620
  H      -77.382     500.651     450.841
  H      -78.556     501.498     451.883
  H      -70.310     508.442     450.989
  H      -71.701     507.951     450.053
  H      -70.270     508.544     449.245

 3  4  5  6  7  8  9  10  11  12  13  23  27  28  29  30  32 0
 6-311+G(2d,p)
 ****
 34  35 0
 6-311+G(2d,p)
 ****
 1  2  14  15  16  17  18  19  20  21  22  24  25  26 0
 3-21G
 ****
 31  33  36  37  38  39  40  41  42  43  44  45  46 0
 3-21G
 ****


