%nproc=1
%NoSave
%Mem=1900MB
#P OB98/GEN NMR

erre ene a

0 1
  C      118.205     -97.059      40.090
  O      116.819     -97.282      40.209
  P      116.170     -98.722      40.440
  C      115.849     -99.360      37.924
  O      116.490     -99.638      39.163
  C      116.261    -100.381      36.850
  O      117.701    -100.560      36.910
  C      115.630    -101.758      37.111
  O      115.151    -102.411      35.940
  C      116.702    -102.477      37.920
  O      116.573    -103.893      37.909
  C      117.981    -101.920      37.300
  N      120.771    -104.572      40.623
  C      119.788    -105.020      39.765
  N      119.373    -106.294      39.946
  N      119.237    -104.268      38.842
  C      119.673    -102.985      38.857
  C      120.643    -102.428      39.659
  C      121.265    -103.280      40.650
  O      122.061    -102.895      41.510
  N      120.776    -101.081      39.442
  C      119.860    -100.813      38.529
  N      119.144    -101.932      38.169
  O      114.779     -98.746      40.993
  O      117.151     -99.348      41.560
  H      115.702    -104.112      38.291
  H      116.601     -99.919      42.136
  H      121.100    -105.178      41.371
  H      119.654     -99.830      38.120
  H      118.268    -102.475      36.406
  H      116.601    -102.161      38.962
  H      119.670    -106.843      40.739
  H      114.730    -101.658      37.728
  H      118.496    -106.561      39.506
  H      116.013     -99.984      35.860
  H      116.174     -98.353      37.628
  H      114.765     -99.343      38.044
  P      113.910    -103.402      35.778
  C      115.373    -105.509      35.874
  O      114.288    -104.809      36.452
  O      113.859    -103.758      34.221
  O      112.600    -102.840      36.225
  H      112.929    -103.795      33.924
  H      115.353    -106.544      36.230
  H      116.318    -105.046      36.184
  H      115.303    -105.505      34.781
  H      118.387     -96.015      39.941
  H      118.584     -97.610      39.255
  H      118.696     -97.383      40.984

 3  4  5  6  7  8  9  10  11  12  23  26  30  31 0
 6-311+G(2d,p)
 ****
 33  35  36  37  38 0
 6-311+G(2d,p)
 ****
 1  2  13  14  15  16  17  18  19  20  21  22  24  25 0
 3-21G
 ****
 27  28  29  32  34  39  40  41  42  43  44  45  46  47  48  49 0
 3-21G
 ****


