%nproc=1
%NoSave
%Mem=1900MB
#P OB98/GEN NMR

erre ene a

0 1
  C     -159.102      24.965     102.988
  O     -160.360      24.414     103.328
  H     -159.260      25.787     102.286
  H     -158.474      24.209     102.510
  H     -158.610      25.354     103.882
  P     -160.348      23.161     104.329
  C     -159.613      21.901     102.191
  O     -160.412      21.881     103.366
  C     -160.159      20.921     101.156
  O     -159.932      19.567     101.581
  C     -161.657      21.044     100.904
  O     -161.922      22.082      99.975
  C     -161.964      19.677     100.311
  O     -161.609      19.665      98.915
  C     -161.025      18.746     101.098
  N     -163.507      14.529     102.650
  C     -163.200      14.984     101.417
  N     -162.588      16.139     101.075
  C     -162.274      16.855     102.169
  C     -162.527      16.518     103.490
  C     -163.170      15.289     103.717
  N     -163.484      14.828     104.977
  N     -162.067      17.499     104.343
  C     -161.494      18.382     103.553
  N     -161.623      18.057     102.227
  O     -161.348      23.205     105.434
  O     -158.817      23.161     104.799
  H     -162.244      20.246      98.457
  H     -158.228      23.355     104.048
  H     -163.485      14.337     100.593
  H     -160.954      19.261     103.890
  H     -160.592      17.971     100.455
  H     -163.022      19.421     100.373
  H     -162.219      21.165     101.838
  H     -159.597      21.068     100.224
  H     -158.576      21.640     102.435
  H     -164.110      14.041     105.037
  H     -163.349      15.456     105.756
  H     -159.629      22.921     101.796
  P     -162.646      23.439     100.432
  C     -164.945      22.529     101.133
  O     -164.201      23.202     100.125
  O     -162.051      24.679      99.862
  O     -162.586      23.399     102.030
  H     -162.759      24.289     102.391
  H     -165.963      22.429     100.818
  H     -164.906      23.093     102.041
  H     -164.526      21.558     101.298

 6  7  8  9  10  11  12  13  14  15  25  28  32  33  34  35 0
 6-311+G(2d,p)
 ****
 36  39  40 0
 6-311+G(2d,p)
 ****
 1  2  3  4  5  16  17  18  19  20  21  22  23  24 0
 3-21G
 ****
 26  27  29  30  31  37  38  41  42  43  44  45  46  47 0
 3-21G
 ****
 48 0
 3-21G
 ****


