%nproc=1
%NoSave
%Mem=1900MB
#P OB98/GEN NMR

erre ene a

0 1
  C      -80.201     484.932    -601.044
  O      -79.165     485.057    -601.994
  P      -78.951     486.413    -602.820
  C      -77.279     487.152    -600.999
  O      -78.413     487.511    -601.776
  C      -76.008     487.820    -601.571
  O      -76.168     489.272    -601.491
  C      -74.726     487.438    -600.788
  O      -73.663     486.937    -601.604
  C      -74.410     488.708    -600.013
  O      -73.069     488.805    -599.583
  C      -74.920     489.789    -600.981
  N      -75.088     491.090    -600.332
  C      -73.942     491.837    -600.090
  O      -72.800     491.480    -600.410
  N      -74.105     493.019    -599.418
  C      -75.272     493.454    -598.859
  O      -75.342     494.471    -598.172
  C      -76.455     492.602    -599.100
  C      -76.317     491.494    -599.830
  O      -80.124     486.850    -603.642
  O      -77.627     486.110    -603.684
  H      -72.495     488.745    -600.364
  H      -76.832     485.896    -603.155
  H      -73.281     493.563    -599.239
  H      -77.383     492.919    -598.661
  H      -77.177     490.842    -600.029
  H      -74.244     489.915    -601.825
  H      -75.043     488.712    -599.114
  H      -74.929     486.626    -600.082
  H      -75.934     487.529    -602.624
  H      -77.157     486.063    -601.035
  H      -77.427     487.432    -599.949
  P      -72.420     486.073    -601.072
  C      -73.932     484.000    -601.533
  O      -72.951     484.609    -600.694
  O      -71.590     486.737    -600.013
  O      -71.547     485.821    -602.391
  H      -70.602     485.732    -602.145
  H      -74.522     483.305    -600.916
  H      -73.427     483.422    -602.312
  H      -74.593     484.740    -601.985
  H      -80.170     483.955    -600.609
  H      -81.146     485.078    -601.525
  H      -80.073     485.668    -600.278

 3  4  5  6  7  8  9  10  11  12  13  23  28  29  30  31  32 0
 6-311+G(2d,p)
 ****
 33  34 0
 6-311+G(2d,p)
 ****
 1  2  14  15  16  17  18  19  20  21  22  24  25  26  27 0
 3-21G
 ****
 35  36  37  38  39  40  41  42  43  44  45 0
 3-21G
 ****


