%nproc=1
%NoSave
%Mem=1900MB
#P OB98/GEN NMR

erre ene a

0 1
  C      110.342     -61.648    -214.129
  O      109.752     -62.322    -213.026
  P      108.941     -63.679    -213.310
  C      106.594     -62.679    -212.847
  O      107.474     -63.256    -213.804
  C      105.132     -62.914    -213.226
  O      104.798     -62.050    -214.350
  C      104.803     -64.351    -213.645
  O      103.450     -64.615    -213.235
  C      104.849     -64.288    -215.161
  O      104.129     -65.359    -215.773
  C      104.266     -62.900    -215.393
  N      103.304     -63.106    -220.421
  C      102.751     -63.752    -219.370
  N      103.062     -63.643    -218.060
  C      104.053     -62.756    -217.884
  C      104.741     -62.051    -218.856
  C      104.328     -62.245    -220.188
  N      104.879     -61.581    -221.257
  N      105.716     -61.257    -218.284
  C      105.626     -61.483    -216.990
  N      104.620     -62.362    -216.700
  O      108.695     -64.256    -211.840
  O      109.649     -64.675    -214.173
  H      104.260     -65.298    -216.739
  H      109.223     -65.070    -211.708
  H      101.947     -64.444    -219.617
  H      106.258     -61.044    -216.229
  H      103.168     -62.888    -215.316
  H      105.893     -64.345    -215.505
  H      105.481     -65.108    -213.231
  H      104.502     -62.603    -212.382
  H      106.777     -61.602    -212.804
  H      104.438     -61.674    -222.158
  H      105.505     -60.802    -221.075
  H      106.800     -63.108    -211.857
  P      103.145     -66.076    -212.650
  C      101.699     -66.829    -214.671
  O      102.872     -67.030    -213.911
  O      101.702     -65.915    -211.981
  O      104.163     -66.573    -211.667
  H      101.594     -66.558    -211.251
  H      101.905     -67.065    -215.720
  H      101.341     -65.794    -214.606
  H      100.913     -67.503    -214.297
  H      110.843     -60.768    -213.783
  H      109.580     -61.373    -214.828
  H      111.047     -62.296    -214.607

 3  4  5  6  7  8  9  10  11  12  22  25  29  30  31  32 0
 6-311+G(2d,p)
 ****
 33  36  37 0
 6-311+G(2d,p)
 ****
 1  2  13  14  15  16  17  18  19  20  21  23  24  26 0
 3-21G
 ****
 27  28  34  35  38  39  40  41  42  43  44  45  46  47  48 0
 3-21G
 ****


