%nproc=1
%NoSave
%Mem=1900MB
#P OB98/GEN NMR

erre ene a

0 1
  C     -237.346     249.269     103.678
  O     -236.678     249.408     102.439
  P     -236.646     250.810     101.668
  C     -239.137     251.381     101.481
  O     -237.982     250.926     100.789
  C     -240.389     251.282     100.605
  O     -241.499     251.930     101.279
  C     -240.235     251.931      99.220
  O     -240.940     251.102      98.286
  C     -240.939     253.264      99.386
  O     -241.363     253.812      98.145
  C     -242.067     252.873     100.348
  N     -242.636     254.022     101.036
  C     -243.754     254.622     100.451
  O     -244.141     254.258      99.339
  N     -244.396     255.625     101.139
  C     -243.855     256.109     102.215
  N     -244.556     257.051     102.900
  C     -242.540     255.668     102.721
  C     -242.010     254.604     102.117
  O     -235.386     251.087     100.917
  O     -236.874     251.900     102.819
  H     -236.159     252.563     102.778
  H     -240.579     253.935      97.569
  H     -242.070     256.184     103.546
  H     -241.062     254.187     102.435
  H     -242.872     252.352      99.808
  H     -240.259     253.981      99.862
  H     -239.192     252.023      98.906
  H     -240.644     250.221     100.500
  H     -245.471     257.301     102.545
  H     -238.979     252.430     101.756
  H     -244.378     257.250     103.885
  H     -239.269     250.808     102.406
  P     -240.084     250.252      97.222
  C     -238.967     252.179      95.883
  O     -239.926     251.140      95.896
  O     -241.152     249.145      96.761
  O     -238.851     249.582      97.739
  H     -240.672     248.357      96.439
  H     -239.046     252.717      94.936
  H     -237.959     251.767      95.969
  H     -239.149     252.884      96.703
  H     -237.250     248.261     104.024
  H     -238.382     249.506     103.553
  H     -236.912     249.935     104.394

 3  4  5  6  7  8  9  10  11  12  13  24  27  28  29  30  32 0
 6-311+G(2d,p)
 ****
 34  35 0
 6-311+G(2d,p)
 ****
 1  2  14  15  16  17  18  19  20  21  22  23  25  26 0
 3-21G
 ****
 31  33  36  37  38  39  40  41  42  43  44  45  46 0
 3-21G
 ****


