%nproc=1
%NoSave
%Mem=1900MB
#P OB98/GEN NMR

erre ene a

0 1
  C      359.966     102.805    -113.486
  O      360.185     101.431    -113.230
  H      360.274     103.022    -114.512
  H      360.559     103.420    -112.805
  H      358.905     103.046    -113.381
  P      359.852     100.862    -111.771
  C      362.310     100.336    -111.186
  O      361.011      99.809    -111.426
  C      363.324      99.202    -111.058
  O      364.652      99.732    -110.883
  C      363.076      98.268    -109.874
  O      362.078      97.311    -110.193
  C      364.452      97.644    -109.718
  O      364.650      96.646    -110.738
  C      365.375      98.850    -109.979
  N      367.383      98.637    -105.321
  C      367.046      97.617    -106.188
  N      367.247      96.358    -105.739
  N      366.549      97.810    -107.383
  C      366.340      99.114    -107.671
  C      366.614     100.213    -106.888
  C      367.227      99.990    -105.596
  O      367.562     100.869    -104.806
  N      366.178     101.372    -107.477
  C      365.687     100.979    -108.638
  N      365.753      99.613    -108.801
  O      358.467     100.326    -111.575
  O      360.166     102.087    -110.790
  H      364.103      95.877    -110.498
  H      359.368     102.625    -110.630
  H      367.755      98.427    -104.411
  H      365.278     101.635    -109.397
  H      366.306      98.556    -110.477
  H      364.588      97.152    -108.753
  H      367.482      96.144    -104.781
  H      362.832      98.826    -108.965
  H      366.951      95.597    -106.339
  H      363.325      98.643    -112.003
  H      362.265     100.913    -110.259
  H      362.610     101.003    -112.001
  P      360.601      97.394    -109.562
  C      361.137      97.153    -107.042
  O      360.665      96.518    -108.220
  O      359.502      97.026    -110.494
  O      360.502      98.879    -108.985
  H      360.224      99.540    -109.668
  H      361.126      96.455    -106.231
  H      360.504      97.983    -106.806
  H      362.137      97.500    -107.200

 6  7  8  9  10  11  12  13  14  15  26  29  33  34 0
 6-311+G(2d,p)
 ****
 36  38  39  40  41 0
 6-311+G(2d,p)
 ****
 1  2  3  4  5  16  17  18  19  20  21  22  23  24  25 0
 3-21G
 ****
 27  28  30  31  32  35  37  42  43  44  45  46  47 0
 3-21G
 ****
 48  49 0
 3-21G
 ****


