%nproc=1
%NoSave
%Mem=1900MB
#P OB98/GEN NMR

erre ene a

0 1
  C     -460.375    -422.154    -314.559
  O     -460.038    -421.403    -313.412
  H     -459.815    -423.092    -314.560
  H     -461.443    -422.383    -314.530
  H     -460.159    -421.590    -315.470
  P     -458.596    -420.704    -313.387
  C     -459.698    -418.373    -313.068
  O     -458.823    -419.180    -313.845
  C     -460.860    -417.866    -313.922
  O     -461.621    -419.013    -314.401
  C     -461.831    -416.937    -313.174
  O     -462.245    -415.901    -314.072
  C     -463.017    -417.837    -312.880
  O     -464.232    -417.112    -312.724
  C     -463.003    -418.758    -314.098
  N     -467.216    -421.375    -315.213
  C     -466.622    -420.322    -315.813
  N     -465.464    -419.718    -315.480
  C     -464.876    -420.347    -314.449
  C     -465.359    -421.433    -313.737
  C     -466.604    -421.944    -314.149
  N     -467.249    -422.973    -313.500
  N     -464.494    -421.758    -312.710
  C     -463.523    -420.865    -312.784
  N     -463.711    -419.992    -313.817
  O     -457.869    -421.370    -314.653
  O     -457.810    -420.886    -312.134
  H     -464.076    -416.368    -312.109
  H     -457.435    -422.198    -314.381
  H     -467.149    -419.906    -316.669
  H     -462.688    -420.787    -312.103
  H     -463.468    -418.299    -314.978
  H     -462.828    -418.398    -311.959
  H     -461.409    -416.490    -312.265
  H     -460.447    -417.366    -314.803
  H     -459.140    -417.514    -312.680
  H     -468.185    -423.199    -313.802
  H     -466.855    -423.332    -312.640
  H     -460.074    -418.962    -312.224
  P     -461.808    -414.398    -313.719
  C     -460.604    -413.633    -315.899
  O     -460.478    -414.052    -314.544
  O     -461.284    -414.516    -312.209
  O     -462.911    -413.399    -313.845
  H     -461.473    -413.695    -311.723
  H     -459.633    -413.442    -316.305
  H     -461.191    -412.739    -315.943
  H     -461.083    -414.403    -316.467

 6  7  8  9  10  11  12  13  14  15  25  28  32  33  34  35 0
 6-311+G(2d,p)
 ****
 36  39  40 0
 6-311+G(2d,p)
 ****
 1  2  3  4  5  16  17  18  19  20  21  22  23  24 0
 3-21G
 ****
 26  27  29  30  31  37  38  41  42  43  44  45  46  47 0
 3-21G
 ****
 48 0
 3-21G
 ****


