%nproc=1
%NoSave
%Mem=1900MB
#P OB98/GEN NMR

erre ene a

0 1
  C      -63.481    -253.052      90.285
  O      -62.774    -252.307      89.313
  H      -63.776    -254.008      89.845
  H      -64.381    -252.514      90.598
  H      -62.840    -253.243      91.149
  P      -62.281    -250.845      89.751
  C      -59.796    -251.523      89.839
  O      -60.935    -251.114      90.587
  C      -58.772    -252.199      90.752
  O      -59.430    -253.277      91.463
  C      -57.584    -252.797      89.996
  O      -56.395    -252.603      90.761
  C      -57.911    -254.278      89.931
  O      -56.746    -255.087      89.801
  C      -58.681    -254.483      91.236
  N      -58.856    -259.564      90.830
  C      -57.830    -258.709      91.025
  N      -57.874    -257.364      91.137
  C      -59.144    -256.924      91.078
  C      -60.289    -257.675      90.880
  C      -60.111    -259.062      90.745
  N      -61.146    -259.939      90.520
  N      -61.401    -256.856      90.831
  C      -60.935    -255.634      91.012
  N      -59.574    -255.624      91.148
  O      -63.299    -249.995      90.434
  O      -61.718    -250.265      88.369
  H      -57.029    -256.013      89.653
  H      -61.185    -250.929      87.895
  H      -56.844    -259.161      91.092
  H      -61.536    -254.731      91.037
  H      -58.018    -254.652      92.093
  H      -58.557    -254.474      89.066
  H      -57.459    -252.364      89.003
  H      -58.442    -251.475      91.506
  H      -59.335    -250.658      89.350
  H      -60.932    -260.921      90.450
  H      -62.091    -259.585      90.472
  H      -60.134    -252.221      89.067
  P      -55.676    -251.171      90.704
  C      -56.606    -250.313      92.953
  O      -56.556    -250.123      91.543
  O      -55.244    -250.711      89.353
  O      -54.406    -251.387      91.662
  H      -53.644    -250.902      91.289
  H      -57.220    -249.555      93.393
  H      -55.617    -250.250      93.357
  H      -57.019    -251.276      93.169

 6  7  8  9  10  11  12  13  14  15  25  28  32  33  34  35 0
 6-311+G(2d,p)
 ****
 36  39  40 0
 6-311+G(2d,p)
 ****
 1  2  3  4  5  16  17  18  19  20  21  22  23  24 0
 3-21G
 ****
 26  27  29  30  31  37  38  41  42  43  44  45  46  47 0
 3-21G
 ****
 48 0
 3-21G
 ****


