%nproc=1
%NoSave
%Mem=1900MB
#P OB98/GEN NMR

erre ene a

0 1
  C      228.715    -313.613    -473.285
  O      229.377    -314.673    -473.947
  H      227.859    -313.303    -473.890
  H      229.385    -312.758    -473.165
  H      228.352    -313.940    -472.306
  P      230.677    -315.303    -473.256
  C      230.018    -317.563    -474.317
  O      231.048    -316.604    -474.118
  C      230.529    -318.956    -473.971
  O      231.141    -318.959    -472.667
  C      229.438    -320.025    -473.941
  O      229.142    -320.467    -475.256
  C      230.117    -321.086    -473.090
  O      231.089    -321.795    -473.881
  C      230.820    -320.227    -472.027
  N      228.755    -322.218    -467.848
  C      229.461    -322.828    -468.867
  N      229.597    -324.168    -468.779
  N      229.968    -322.185    -469.889
  C      229.691    -320.863    -469.877
  C      228.991    -320.147    -468.933
  C      228.481    -320.858    -467.779
  O      227.868    -320.354    -466.846
  N      228.857    -318.830    -469.294
  C      229.511    -318.744    -470.438
  N      230.022    -319.953    -470.842
  O      230.587    -315.561    -471.782
  O      231.847    -314.274    -473.617
  H      230.633    -322.085    -474.690
  H      231.956    -313.605    -472.916
  H      228.374    -322.770    -467.098
  H      229.644    -317.834    -471.009
  H      231.762    -320.671    -471.688
  H      229.423    -321.825    -472.690
  H      228.996    -324.729    -468.187
  H      228.542    -319.679    -473.415
  H      230.066    -324.641    -469.541
  H      231.313    -319.215    -474.694
  H      229.719    -317.515    -475.369
  H      229.151    -317.323    -473.694
  P      227.666    -320.313    -475.869
  C      228.451    -320.349    -478.331
  O      227.735    -321.025    -477.304
  O      227.137    -318.920    -475.891
  O      226.774    -321.330    -475.024
  H      226.391    -320.934    -474.203
  H      228.419    -320.929    -479.230
  H      229.469    -320.217    -478.028
  H      228.004    -319.393    -478.507

 6  7  8  9  10  11  12  13  14  15  26  29  33  34 0
 6-311+G(2d,p)
 ****
 36  38  39  40  41 0
 6-311+G(2d,p)
 ****
 1  2  3  4  5  16  17  18  19  20  21  22  23  24  25 0
 3-21G
 ****
 27  28  30  31  32  35  37  42  43  44  45  46  47 0
 3-21G
 ****
 48  49 0
 3-21G
 ****


