%nproc=1
%NoSave
%Mem=1900MB
#P OB98/GEN NMR

erre ene a

0 1
  C     -165.823     169.236      30.819
  O     -166.998     168.992      31.590
  P     -168.396     169.484      30.982
  C     -168.903     171.008      33.058
  O     -168.757     170.898      31.654
  C     -170.226     171.711      33.422
  O     -170.165     173.077      32.940
  C     -171.479     171.110      32.791
  O     -172.622     171.558      33.520
  C     -171.471     171.752      31.420
  O     -172.747     171.670      30.791
  C     -170.962     173.180      31.724
  N     -170.149     173.765      30.636
  C     -170.783     174.108      29.444
  O     -171.988     173.950      29.241
  N     -169.981     174.607      28.454
  C     -168.643     174.836      28.549
  O     -167.956     175.203      27.600
  C     -168.047     174.589      29.865
  C     -168.808     174.062      30.828
  O     -169.460     168.467      31.614
  O     -168.439     169.485      29.489
  H     -172.662     172.143      29.932
  H     -169.750     167.823      30.938
  H     -170.420     174.800      27.567
  H     -166.994     174.819      30.002
  H     -168.378     173.854      31.806
  H     -171.799     173.862      31.913
  H     -170.758     171.230      30.772
  H     -171.479     170.017      32.731
  H     -170.324     171.749      34.515
  H     -168.055     171.557      33.482
  H     -168.886     170.009      33.513
  P     -173.244     170.573      34.623
  C     -175.124     169.856      33.021
  O     -174.035     169.432      33.817
  O     -174.004     171.223      35.734
  O     -171.956     169.790      35.166
  H     -172.154     169.387      36.039
  H     -175.232     169.166      32.178
  H     -174.969     170.870      32.637
  H     -176.041     169.833      33.623
  H     -164.969     168.858      31.341
  H     -165.710     170.289      30.665
  H     -165.909     168.744      29.873

 3  4  5  6  7  8  9  10  11  12  13  23  28  29  30  31  32 0
 6-311+G(2d,p)
 ****
 33  34 0
 6-311+G(2d,p)
 ****
 1  2  14  15  16  17  18  19  20  21  22  24  25  26  27 0
 3-21G
 ****
 35  36  37  38  39  40  41  42  43  44  45 0
 3-21G
 ****


