%nproc=1
%NoSave
%Mem=1900MB
#P OB98/GEN NMR

erre ene a

0 1
  C      -18.012     441.048    -569.773
  O      -17.162     439.958    -569.398
  P      -17.778     438.688    -568.648
  C      -17.748     440.073    -566.467
  O      -18.486     439.173    -567.289
  C      -18.649     440.593    -565.333
  O      -19.046     439.525    -564.440
  C      -17.949     441.603    -564.437
  O      -17.657     442.870    -565.003
  C      -18.813     441.586    -563.188
  O      -19.960     442.423    -563.320
  C      -19.236     440.100    -563.125
  N      -18.503     439.344    -562.111
  C      -18.689     439.741    -560.794
  O      -19.388     440.701    -560.465
  N      -18.007     439.020    -559.843
  C      -17.147     437.976    -560.090
  O      -16.547     437.384    -559.204
  C      -16.981     437.612    -561.515
  C      -17.647     438.299    -562.435
  O      -16.886     437.507    -568.516
  O      -19.052     438.327    -569.576
  H      -20.616     442.139    -562.645
  H      -19.098     437.353    -569.651
  H      -18.133     439.287    -558.878
  H      -16.298     436.801    -561.740
  H      -17.539     438.046    -563.486
  H      -20.312     440.015    -562.897
  H      -18.263     441.934    -562.304
  H      -16.974     441.179    -564.146
  H      -19.555     441.017    -565.772
  H      -17.379     440.908    -567.068
  H      -16.868     439.562    -566.062
  P      -16.215     443.253    -565.590
  C      -15.276     444.400    -563.448
  O      -15.174     443.336    -564.376
  O      -16.165     444.343    -566.607
  O      -15.784     441.876    -566.303
  H      -15.245     442.091    -567.081
  H      -14.490     444.302    -562.715
  H      -16.247     444.370    -562.947
  H      -15.165     445.363    -563.969
  H      -17.431     441.802    -570.261
  H      -18.470     441.460    -568.898
  H      -18.771     440.696    -570.440

 3  4  5  6  7  8  9  10  11  12  13  23  28  29  30  31  32 0
 6-311+G(2d,p)
 ****
 33  34 0
 6-311+G(2d,p)
 ****
 1  2  14  15  16  17  18  19  20  21  22  24  25  26  27 0
 3-21G
 ****
 35  36  37  38  39  40  41  42  43  44  45 0
 3-21G
 ****


