%nproc=1
%NoSave
%Mem=1900MB
#P OB98/GEN NMR

erre ene a

0 1
  C      735.470     614.469    -192.570
  O      735.888     615.282    -193.677
  P      734.856     616.429    -194.127
  C      736.309     618.329    -195.145
  O      735.622     617.850    -194.001
  C      737.020     619.651    -194.850
  O      736.080     620.764    -194.903
  C      737.679     619.704    -193.463
  O      738.882     620.479    -193.589
  C      736.632     620.441    -192.646
  O      737.150     620.946    -191.410
  C      736.207     621.485    -193.679
  N      734.160     625.672    -191.578
  C      735.445     625.285    -191.777
  N      735.918     624.156    -192.343
  C      734.891     623.367    -192.722
  C      733.521     623.632    -192.595
  C      733.164     624.851    -191.981
  N      731.857     625.229    -191.771
  N      732.779     622.562    -193.091
  C      733.684     621.668    -193.439
  N      734.952     622.143    -193.327
  O      733.800     616.462    -192.923
  O      734.218     616.172    -195.438
  H      737.314     620.208    -190.814
  H      733.003     615.972    -193.165
  H      736.204     626.000    -191.447
  H      733.479     620.667    -193.789
  H      736.949     622.273    -193.804
  H      735.823     619.769    -192.387
  H      737.946     618.705    -193.058
  H      737.787     619.811    -195.641
  H      735.604     618.472    -195.972
  H      731.713     626.123    -191.325
  H      731.113     624.628    -192.051
  H      737.021     617.570    -195.493
  P      740.237     619.725    -194.007
  C      740.069     620.823    -196.319
  O      740.162     619.596    -195.603
  O      739.916     618.215    -193.548
  O      741.497     620.289    -193.408
  H      739.071     617.955    -193.895
  H      740.116     620.590    -197.396
  H      740.932     621.475    -196.074
  H      739.135     621.318    -196.093
  H      736.226     613.743    -192.355
  H      734.557     613.970    -192.819
  H      735.316     615.088    -191.711

 3  4  5  6  7  8  9  10  11  12  22  25  29  30  31  32 0
 6-311+G(2d,p)
 ****
 33  36  37 0
 6-311+G(2d,p)
 ****
 1  2  13  14  15  16  17  18  19  20  21  23  24  26 0
 3-21G
 ****
 27  28  34  35  38  39  40  41  42  43  44  45  46  47  48 0
 3-21G
 ****


