%nproc=1
%NoSave
%Mem=1900MB
#P OB98/GEN NMR

erre ene a

0 1
  C     -948.637    -632.752    1779.563
  O     -947.578    -632.060    1780.196
  H     -948.781    -633.718    1780.061
  H     -948.384    -632.940    1778.517
  H     -949.568    -632.177    1779.617
  P     -947.262    -630.577    1779.664
  C     -946.502    -629.229    1781.739
  O     -947.578    -629.587    1780.886
  C     -946.699    -629.791    1783.144
  O     -946.752    -631.246    1783.061
  C     -945.604    -629.425    1784.161
  O     -946.222    -629.247    1785.440
  C     -944.746    -630.671    1784.186
  O     -943.976    -630.770    1785.379
  C     -945.814    -631.751    1784.058
  N     -946.080    -636.692    1784.948
  C     -946.819    -635.648    1785.462
  N     -947.770    -635.973    1786.369
  N     -946.638    -634.391    1785.135
  C     -945.666    -634.221    1784.201
  C     -944.871    -635.165    1783.605
  C     -945.048    -636.559    1784.023
  O     -944.429    -637.519    1783.594
  N     -943.985    -634.599    1782.743
  C     -944.245    -633.298    1782.786
  N     -945.266    -633.027    1783.674
  O     -948.455    -630.312    1778.631
  O     -945.927    -630.403    1779.024
  H     -943.624    -631.688    1785.444
  H     -948.189    -630.550    1777.732
  H     -946.255    -637.641    1785.239
  H     -943.746    -632.535    1782.237
  H     -946.371    -631.901    1784.993
  H     -944.063    -630.687    1783.333
  H     -948.000    -636.895    1786.626
  H     -945.041    -628.521    1783.895
  H     -948.352    -635.216    1786.717
  H     -947.701    -629.461    1783.507
  H     -946.445    -628.130    1781.802
  H     -945.551    -629.601    1781.317
  P     -945.849    -627.946    1786.288
  C     -947.966    -626.556    1786.938
  O     -946.936    -626.813    1785.982
  O     -944.552    -627.403    1785.548
  O     -945.605    -628.219    1787.747
  H     -943.969    -626.925    1786.194
  H     -948.601    -625.774    1786.577
  H     -947.525    -626.257    1787.866
  H     -948.543    -627.444    1787.088

 6  7  8  9  10  11  12  13  14  15  26  29  33  34 0
 6-311+G(2d,p)
 ****
 36  38  39  40  41 0
 6-311+G(2d,p)
 ****
 1  2  3  4  5  16  17  18  19  20  21  22  23  24  25 0
 3-21G
 ****
 27  28  30  31  32  35  37  42  43  44  45  46  47 0
 3-21G
 ****
 48  49 0
 3-21G
 ****


