%nproc=1
%NoSave
%Mem=1900MB
#P OB98/GEN NMR

erre ene a

0 1
  C     -756.270    1242.840     653.096
  O     -755.257    1242.659     654.076
  H     -755.794    1243.185     652.171
  H     -756.978    1243.600     653.432
  H     -756.780    1241.895     652.902
  P     -755.712    1241.996     655.462
  C     -756.901    1244.170     656.344
  O     -755.863    1243.214     656.501
  C     -756.751    1245.298     657.363
  O     -756.980    1244.762     658.693
  C     -755.360    1245.947     657.365
  O     -755.506    1247.344     657.639
  C     -754.656    1245.280     658.539
  O     -753.585    1246.064     659.041
  C     -755.838    1245.071     659.510
  N     -755.572    1244.022     660.490
  C     -755.317    1244.435     661.806
  O     -755.307    1245.629     662.093
  N     -755.042    1243.483     662.751
  C     -754.946    1242.234     662.418
  N     -754.653    1241.348     663.400
  C     -755.165    1241.757     661.030
  C     -755.476    1242.694     660.136
  O     -754.365    1241.263     655.927
  O     -756.899    1241.097     655.361
  H     -753.913    1246.969     659.212
  H     -753.569    1241.808     655.824
  H     -755.071    1240.709     660.795
  H     -755.664    1242.432     659.099
  H     -756.049    1245.994     660.059
  H     -754.246    1244.308     658.231
  H     -754.824    1245.813     656.421
  H     -757.530    1246.038     657.181
  H     -754.482    1241.720     664.326
  H     -757.875    1243.691     656.474
  H     -754.492    1240.362     663.237
  H     -756.843    1244.562     655.329
  P     -755.609    1248.374     656.418
  C     -753.030    1248.501     656.155
  O     -754.245    1249.223     656.341
  O     -756.868    1249.186     656.347
  O     -755.495    1247.427     655.133
  H     -756.136    1247.746     654.471
  H     -752.209    1249.187     656.123
  H     -753.076    1247.956     655.235
  H     -752.893    1247.818     656.968

 6  7  8  9  10  11  12  13  14  15  16  26  30  31  32  33  35 0
 6-311+G(2d,p)
 ****
 37  38 0
 6-311+G(2d,p)
 ****
 1  2  3  4  5  17  18  19  20  21  22  23  24  25 0
 3-21G
 ****
 27  28  29  34  36  39  40  41  42  43  44  45  46 0
 3-21G
 ****


