%nproc=1
%NoSave
%Mem=1900MB
#P OB98/GEN NMR

erre ene a

0 1
  C      260.982    1001.138     147.450
  O      260.933    1002.441     148.001
  H      259.977    1000.861     147.116
  H      261.311    1000.418     148.206
  H      261.660    1001.116     146.595
  P      262.295    1002.985     148.651
  C      263.664    1003.491     146.488
  O      263.412    1002.594     147.566
  C      265.174    1003.632     146.277
  O      265.814    1004.118     147.481
  C      265.877    1002.324     145.948
  O      265.719    1001.944     144.589
  C      267.309    1002.700     146.260
  O      267.841    1003.528     145.203
  C      267.128    1003.523     147.559
  N      267.250    1002.711     148.771
  C      268.524    1002.199     149.056
  O      269.475    1002.425     148.309
  N      268.682    1001.415     150.172
  C      267.673    1001.166     150.946
  N      267.884    1000.370     152.032
  C      266.320    1001.692     150.695
  C      266.182    1002.450     149.602
  O      262.589    1001.948     149.837
  O      262.297    1004.423     149.071
  H      268.783    1003.678     145.408
  H      263.484    1002.127     150.225
  H      265.497    1001.457     151.358
  H      265.216    1002.869     149.351
  H      267.855    1004.338     147.615
  H      267.981    1001.838     146.357
  H      265.570    1001.519     146.623
  H      265.332    1004.384     145.495
  H      268.807     999.972     152.144
  H      263.228    1004.461     146.737
  H      267.122     999.981     152.573
  H      263.207    1003.113     145.573
  P      265.728    1000.369     144.255
  C      263.574    1000.225     142.809
  O      264.195     999.927     144.057
  O      266.118     999.697     145.653
  O      266.660     999.966     143.155
  H      266.714     998.944     145.528
  H      262.563     999.875     142.821
  H      264.110     999.741     142.019
  H      263.583    1001.283     142.650

 6  7  8  9  10  11  12  13  14  15  16  26  30  31  32  33  35 0
 6-311+G(2d,p)
 ****
 37  38 0
 6-311+G(2d,p)
 ****
 1  2  3  4  5  17  18  19  20  21  22  23  24  25 0
 3-21G
 ****
 27  28  29  34  36  39  40  41  42  43  44  45  46 0
 3-21G
 ****


