%nproc=1
%NoSave
%Mem=1900MB
#P OB98/GEN NMR

erre ene a

0 1
  C      435.416    -273.604       3.292
  O      435.950    -274.526       4.224
  H      435.278    -272.640       3.791
  H      434.449    -273.955       2.928
  H      436.108    -273.471       2.455
  P      436.246    -276.003       3.679
  C      434.768    -276.918       5.622
  O      435.996    -276.993       4.918
  C      435.012    -276.942       7.138
  O      435.442    -275.613       7.558
  C      433.765    -277.288       7.968
  O      434.207    -277.925       9.182
  C      433.211    -275.913       8.290
  O      432.250    -275.975       9.311
  C      434.517    -275.179       8.584
  N      433.899    -270.991      11.467
  C      434.051    -272.296      11.791
  N      434.226    -273.350      10.968
  C      434.251    -272.955       9.685
  C      434.119    -271.666       9.196
  C      433.929    -270.648      10.149
  N      433.765    -269.324       9.823
  N      434.196    -271.657       7.814
  C      434.374    -272.913       7.474
  N      434.407    -273.736       8.569
  O      437.835    -276.015       3.492
  O      435.528    -276.377       2.424
  H      431.604    -276.696       9.143
  H      438.062    -275.807       2.565
  H      434.028    -272.518      12.852
  H      434.476    -273.287       6.461
  H      434.938    -275.470       9.556
  H      432.711    -275.480       7.416
  H      433.066    -277.947       7.444
  H      435.839    -277.626       7.352
  H      434.148    -277.777       5.333
  H      434.246    -275.996       5.352
  H      433.620    -268.659      10.566
  H      433.767    -269.056       8.846
  P      433.205    -278.925       9.952
  C      433.688    -277.734      12.235
  O      433.597    -278.949      11.506
  O      433.717    -280.359       9.455
  O      431.753    -278.747       9.645
  H      432.980    -280.997       9.465
  H      433.958    -277.946      13.248
  H      432.742    -277.234      12.215
  H      434.432    -277.106      11.791

 6  7  8  9  10  11  12  13  14  15  25  28  32  33  34  35 0
 6-311+G(2d,p)
 ****
 36  37  40 0
 6-311+G(2d,p)
 ****
 1  2  3  4  5  16  17  18  19  20  21  22  23  24 0
 3-21G
 ****
 26  27  29  30  31  38  39 41  42  43  44  45  46  47  48 0
 3-21G
 ****


