%nproc=1
%NoSave
%Mem=1900MB
#P OB98/GEN NMR

erre ene a

0 1
  C      486.939     620.947     137.764
  O      485.610     621.414     137.925
  H      487.608     621.559     138.381
  H      487.261     621.040     136.720
  H      487.023     619.907     138.085
  P      484.471     620.776     137.006
  C      484.178     622.895     135.547
  O      484.583     621.535     135.592
  C      484.002     623.336     134.097
  O      485.258     623.289     133.388
  C      483.052     622.442     133.307
  O      481.703     622.695     133.652
  C      483.443     622.783     131.888
  O      482.839     624.019     131.461
  C      484.975     622.941     132.023
  N      485.703     621.734     131.622
  C      486.491     621.841     130.471
  O      486.551     622.901     129.848
  N      487.166     620.720     130.033
  C      487.087     619.615     130.704
  N      487.787     618.541     130.216
  C      486.282     619.460     131.933
  C      485.615     620.553     132.323
  O      483.081     620.733     137.569
  O      485.023     619.306     136.674
  H      483.203     624.198     130.575
  H      484.724     618.672     137.352
  H      486.243     618.516     132.458
  H      485.010     620.526     133.219
  H      485.333     623.777     131.399
  H      483.146     622.001     131.185
  H      483.294     621.385     133.478
  H      483.644     624.379     134.090
  H      488.311     618.697     129.371
  H      484.973     623.485     136.012
  H      487.868     617.666     130.688
  H      483.246     623.038     136.105
  P      480.524     621.752     133.138
  C      479.385     623.677     131.864
  O      480.010     622.400     131.755
  O      479.464     621.443     134.142
  O      481.320     620.437     132.626
  H      481.642     619.902     133.389
  H      479.085     624.011     130.893
  H      480.076     624.378     132.284
  H      478.525     623.601     132.497

 6  7  8  9  10  11  12  13  14  15  16  26  30  31  32  33  35 0
 6-311+G(2d,p)
 ****
 37  38 0
 6-311+G(2d,p)
 ****
 1  2  3  4  5  17  18  19  20  21  22  23  24  25 0
 3-21G
 ****
 27  28  29  34  36  39  40  41  42  43  44  45  46 0
 3-21G
 ****


