%nproc=1
%NoSave
%Mem=1900MB
#P OB98/GEN NMR

erre ene a

0 1
  C     -490.654    -375.434    -899.100
  O     -491.025    -376.456    -898.170
  P     -490.283    -376.458    -896.750
  C     -492.446    -376.322    -895.330
  O     -491.219    -375.709    -895.670
  C     -493.285    -375.437    -894.390
  O     -492.629    -375.320    -893.090
  C     -493.491    -374.017    -894.920
  O     -494.779    -373.565    -894.490
  C     -492.424    -373.216    -894.190
  O     -492.730    -371.811    -894.180
  C     -492.463    -373.916    -892.810
  N     -489.770    -370.357    -890.320
  C     -490.940    -370.325    -891.000
  N     -491.584    -371.302    -891.660
  C     -490.908    -372.459    -891.550
  C     -489.702    -372.668    -890.890
  C     -489.112    -371.554    -890.270
  N     -487.912    -371.605    -889.620
  N     -489.292    -373.971    -891.030
  C     -490.242    -374.543    -891.740
  N     -491.269    -373.687    -892.050
  O     -489.066    -375.418    -896.970
  O     -489.779    -377.799    -896.330
  H     -493.474    -371.683    -893.550
  H     -488.226    -375.915    -897.020
  H     -491.432    -369.336    -891.010
  H     -490.261    -375.590    -892.090
  H     -493.308    -373.580    -892.210
  H     -491.454    -373.351    -894.660
  H     -493.406    -373.908    -896.010
  H     -494.259    -375.918    -894.250
  H     -492.254    -377.287    -894.850
  H     -487.547    -370.745    -889.220
  H     -487.388    -372.484    -889.610
  H     -492.996    -376.568    -896.240
  P     -495.887    -373.300    -895.640
  C     -497.076    -375.411    -894.720
  O     -496.648    -374.707    -895.850
  O     -494.999    -373.163    -896.970
  O     -496.741    -372.120    -895.400
  H     -495.471    -372.591    -897.620
  H     -498.064    -375.833    -894.890
  H     -497.116    -374.791    -893.820
  H     -496.377    -376.239    -894.540
  H     -491.221    -375.548    -900.000
  H     -489.611    -375.516    -899.323
  H     -490.853    -374.473    -898.672

 3  4  5  6  7  8  9  10  11  12  22  25  29  30  31  32 0
 6-311+G(2d,p)
 ****
 33  36  37 0
 6-311+G(2d,p)
 ****
 1  2  13  14  15  16  17  18  19  20  21  23  24  26 0
 3-21G
 ****
 27  28  34  35  38  39  40  41  42  43  44  45  46  47  48 0
 3-21G
 ****


