%nproc=1
%NoSave
%Mem=1900MB
#P OB98/GEN NMR

erre ene a

0 1
  C      447.009     843.457     351.690
  O      447.366     842.139     351.311
  H      447.759     844.149     351.302
  H      446.984     843.538     352.783
  H      446.036     843.726     351.275
  P      446.365     840.971     351.764
  C      448.119     839.599     353.126
  O      446.937     840.396     353.153
  C      448.398     839.042     354.514
  O      448.860     840.103     355.384
  C      447.163     838.456     355.206
  O      446.840     837.159     354.740
  C      447.603     838.489     356.660
  O      448.404     837.333     356.989
  C      448.443     839.764     356.728
  N      447.081     841.927     361.148
  C      447.877     840.870     360.873
  N      448.210     840.366     359.666
  C      447.630     841.083     358.681
  C      446.802     842.186     358.814
  C      446.528     842.613     360.115
  N      445.689     843.668     360.409
  N      446.381     842.628     357.572
  C      446.956     841.816     356.706
  N      447.727     840.872     357.333
  O      446.681     839.794     350.714
  O      444.921     841.335     351.768
  H      448.629     837.430     357.933
  H      446.003     839.792     350.019
  H      448.310     840.364     361.726
  H      446.842     841.862     355.629
  H      449.363     839.613     357.321
  H      446.737     838.496     357.332
  H      446.309     839.137     355.082
  H      449.191     838.285     354.441
  H      448.965     840.212     352.802
  H      447.973     838.787     352.405
  H      445.490     843.880     361.368
  H      445.186     844.108     359.651
  P      445.538     836.449     355.347
  C      446.838     834.223     355.795
  O      446.049     835.290     356.332
  O      444.926     835.659     354.111
  O      444.554     837.387     355.950
  H      443.944     835.665     354.151
  H      447.094     833.540     356.578
  H      447.732     834.623     355.363
  H      446.278     833.709     355.042

 6  7  8  9  10  11  12  13  14  15  25  28  32  33  34  35 0
 6-311+G(2d,p)
 ****
 36  37  40 0
 6-311+G(2d,p)
 ****
 1  2  3  4  5  16  17  18  19  20  21  22  23  24 0
 3-21G
 ****
 26  27  29  30  31  38  39 41  42  43  44  45  46  47  48 0
 3-21G
 ****


