%nproc=1
%NoSave
%Mem=1900MB
#P OB98/GEN NMR

erre ene a

0 1
  C       40.807     124.631    -718.377
  O       40.268     125.944    -718.374
  P       39.869     126.665    -716.999
  C       37.424     126.939    -717.738
  O       38.297     126.403    -716.754
  C       36.740     128.202    -717.230
  O       35.652     128.539    -718.145
  C       36.120     128.085    -715.820
  O       36.251     129.372    -715.208
  C       34.658     127.806    -716.109
  O       33.807     128.114    -715.013
  C       34.453     128.678    -717.332
  N       29.345     128.805    -717.653
  C       30.194     129.245    -716.709
  N       31.554     129.173    -716.686
  C       31.998     128.524    -717.781
  C       31.238     127.979    -718.812
  C       29.841     128.156    -718.729
  N       28.959     127.737    -719.685
  N       32.063     127.356    -719.734
  C       33.290     127.526    -719.263
  N       33.292     128.276    -718.125
  O       40.296     128.095    -716.885
  O       40.579     125.761    -715.873
  H       34.200     127.744    -714.203
  H       41.356     126.234    -715.522
  H       29.749     129.770    -715.847
  H       34.186     127.126    -719.715
  H       34.342     129.737    -717.084
  H       34.522     126.743    -716.345
  H       36.598     127.315    -715.203
  H       37.460     129.023    -717.264
  H       36.670     126.175    -717.961
  H       27.992     128.036    -719.593
  H       29.312     127.508    -720.619
  H       37.986     127.152    -718.650
  P       37.153     129.549    -713.888
  C       35.104     129.614    -712.354
  O       36.306     128.927    -712.675
  O       37.704     130.912    -713.650
  O       38.326     128.476    -714.083
  H       39.080     128.671    -713.485
  H       35.345     130.493    -711.724
  H       34.451     128.944    -711.782
  H       34.583     129.957    -713.249
  H       41.006     124.330    -719.384
  H       40.104     123.956    -717.935
  H       41.717     124.618    -717.814

 3  4  5  6  7  8  9  10  11  12  22  25  29  30  31  32 0
 6-311+G(2d,p)
 ****
 33  36  37 0
 6-311+G(2d,p)
 ****
 1  2  13  14  15  16  17  18  19  20  21  23  24  26 0
 3-21G
 ****
 27  28  34  35  38  39  40  41  42  43  44  45  46  47  48 0
 3-21G
 ****


