%nproc=1
%NoSave
%Mem=1900MB
#P OB98/GEN NMR

erre ene a

0 1
  C     -313.001     320.903     668.524
  O     -314.171     321.590     668.983
  P     -314.689     321.389     670.489
  C     -316.306     319.459     670.024
  O     -315.117     319.856     670.709
  C     -316.607     317.959     670.148
  O     -317.967     317.670     669.743
  C     -315.692     317.042     669.326
  O     -315.545     315.836     670.085
  C     -316.510     316.803     668.068
  O     -316.077     315.663     667.341
  C     -317.929     316.708     668.664
  N     -318.970     316.966     667.671
  C     -319.692     315.864     667.215
  O     -319.414     314.734     667.608
  N     -320.697     316.064     666.295
  C     -320.882     317.250     665.798
  N     -321.877     317.382     664.878
  C     -320.084     318.437     666.175
  C     -319.162     318.218     667.113
  O     -315.708     322.391     670.938
  O     -313.354     321.529     671.379
  H     -316.703     315.508     666.607
  H     -313.580     321.896     672.249
  H     -320.250     319.385     665.715
  H     -318.517     319.021     667.478
  H     -318.105     315.717     669.094
  H     -316.439     317.674     667.403
  H     -314.715     317.489     669.088
  H     -316.530     317.692     671.219
  H     -322.384     316.545     664.616
  H     -316.196     319.722     668.964
  H     -322.032     318.216     664.339
  H     -317.154     320.040     670.410
  P     -314.120     315.270     670.528
  C     -313.439     314.205     668.294
  O     -313.193     315.260     669.214
  O     -314.154     313.985     671.279
  O     -313.471     316.449     671.420
  H     -312.738     316.083     671.954
  H     -312.916     314.410     667.364
  H     -314.514     314.111     668.074
  H     -313.061     313.260     668.724
  H     -312.814     321.161     667.503
  H     -313.153     319.847     668.603
  H     -312.162     321.188     669.123

 3  4  5  6  7  8  9  10  11  12  13  23  27  28  29  30  32 0
 6-311+G(2d,p)
 ****
 34  35 0
 6-311+G(2d,p)
 ****
 1  2  14  15  16  17  18  19  20  21  22  24  25  26 0
 3-21G
 ****
 31  33  36  37  38  39  40  41  42  43  44  45  46 0
 3-21G
 ****


