%nproc=1
%NoSave
%Mem=1900MB
#P OB98/GEN NMR

erre ene a

0 1
  C     -892.010    -907.261    -892.380
  O     -892.260    -907.824    -893.680
  P     -892.730    -909.362    -893.760
  C     -894.900    -909.146    -895.280
  O     -894.320    -909.403    -894.000
  C     -895.340    -907.655    -895.340
  O     -894.230    -906.776    -895.130
  C     -896.030    -907.261    -896.660
  O     -897.420    -907.550    -896.660
  C     -895.670    -905.774    -896.730
  O     -896.590    -905.003    -895.880
  C     -894.270    -905.758    -896.150
  N     -893.110    -905.980    -897.140
  C     -893.060    -905.233    -898.330
  O     -893.820    -904.383    -898.640
  N     -891.910    -905.475    -899.110
  C     -890.850    -906.287    -898.790
  O     -889.870    -906.432    -899.510
  C     -890.940    -906.934    -897.450
  C     -891.990    -906.755    -896.740
  O     -892.570    -909.895    -892.230
  O     -891.960    -910.201    -894.710
  H     -896.450    -905.359    -894.970
  H     -891.900    -910.597    -892.180
  H     -891.890    -905.048    -900.000
  H     -890.050    -907.520    -897.190
  H     -892.050    -907.260    -895.750
  H     -894.030    -904.740    -895.720
  H     -895.860    -905.387    -897.780
  H     -895.490    -907.774    -897.510
  H     -896.090    -907.446    -894.490
  H     -895.770    -909.774    -895.440
  H     -894.160    -909.352    -896.060
  P     -898.000    -908.682    -897.610
  C     -898.510    -910.615    -895.910
  O     -897.590    -910.094    -896.890
  O     -897.620    -908.604    -899.090
  O     -899.560    -908.611    -897.390
  H     -900.000    -908.083    -898.050
  H     -898.250    -911.645    -895.660
  H     -899.520    -910.591    -896.360
  H     -898.520    -909.940    -895.030
  H     -891.708    -906.240    -892.486
  H     -891.233    -907.815    -891.895
  H     -892.903    -907.310    -891.793

 3  4  5  6  7  8  9  10  11  12  13  23  28  29  30  31  32 0
 6-311+G(2d,p)
 ****
 33  34 0
 6-311+G(2d,p)
 ****
 1  2  14  15  16  17  18  19  20  21  22  24  25  26  27 0
 3-21G
 ****
 35  36  37  38  39  40  41  42  43  44  45 0
 3-21G
 ****


