%nproc=1
%NoSave
%Mem=1900MB
#P OB98/GEN NMR

erre ene a

0 1
  C      748.100    -429.180      25.879
  O      747.708    -429.599      27.173
  H      748.958    -428.506      25.945
  H      748.383    -430.065      25.296
  H      747.263    -428.685      25.379
  P      747.283    -428.449      28.210
  C      749.690    -427.866      28.982
  O      748.520    -427.422      28.308
  C      750.558    -426.656      29.360
  O      751.273    -426.216      28.177
  C      749.778    -425.468      29.928
  O      750.267    -425.128      31.232
  C      750.115    -424.317      28.984
  O      750.324    -423.068      29.660
  C      751.380    -424.795      28.278
  N      754.464    -422.075      25.252
  C      754.721    -422.852      26.336
  N      753.877    -423.632      27.028
  C      752.644    -423.587      26.492
  C      752.234    -422.856      25.391
  C      753.204    -422.062      24.775
  N      752.926    -421.231      23.706
  N      750.881    -423.061      25.146
  C      750.476    -423.856      26.113
  N      751.506    -424.185      26.971
  O      747.310    -429.195      29.634
  O      745.958    -427.813      27.946
  H      751.212    -423.110      30.062
  H      746.492    -428.998      30.120
  H      755.761    -422.837      26.684
  H      749.457    -424.183      26.273
  H      752.294    -424.562      28.846
  H      749.292    -424.181      28.281
  H      748.700    -425.639      29.962
  H      751.319    -426.996      30.077
  H      750.269    -428.525      28.326
  H      753.654    -420.599      23.396
  H      751.966    -421.128      23.406
  H      749.393    -428.422      29.870
  P      749.165    -424.953      32.389
  C      749.895    -422.485      32.822
  O      748.833    -423.379      32.504
  O      749.979    -425.258      33.732
  O      747.981    -425.847      32.240
  H      749.391    -425.589      34.424
  H      749.519    -421.484      32.862
  H      750.654    -422.551      32.071
  H      750.310    -422.748      33.772

 6  7  8  9  10  11  12  13  14  15  25  28  32  33  34  35 0
 6-311+G(2d,p)
 ****
 36  39  40 0
 6-311+G(2d,p)
 ****
 1  2  3  4  5  16  17  18  19  20  21  22  23  24 0
 3-21G
 ****
 26  27  29  30  31  37  38  41  42  43  44  45  46  47  48 0
 3-21G
 ****


