%nproc=1
%NoSave
%Mem=1900MB
#P OB98/GEN NMR

erre ene a

0 1
  C     -149.920     333.176     146.523
  O     -150.899     333.794     147.371
  P     -150.524     334.644     148.679
  C     -151.191     336.985     147.798
  O     -151.474     335.939     148.721
  C     -151.149     338.341     148.509
  O     -150.694     339.371     147.598
  C     -152.490     338.854     149.013
  O     -152.941     338.155     150.156
  C     -152.173     340.327     149.257
  O     -151.576     340.524     150.547
  C     -151.143     340.631     148.150
  N     -151.670     341.500     147.110
  C     -150.983     342.694     146.884
  O     -150.034     343.013     147.599
  N     -151.402     343.508     145.860
  C     -152.474     343.208     145.195
  N     -152.831     344.043     144.179
  C     -153.305     342.028     145.493
  C     -152.847     341.224     146.450
  O     -149.071     334.961     148.800
  O     -151.027     333.760     149.916
  H     -150.496     333.974     150.705
  H     -150.867     339.860     150.636
  H     -154.214     341.836     144.941
  H     -153.389     340.324     146.724
  H     -150.248     341.090     148.582
  H     -153.069     340.954     149.217
  H     -153.232     338.771     148.208
  H     -150.432     338.267     149.339
  H     -152.233     344.838     143.996
  H     -151.986     337.007     147.043
  H     -153.633     343.887     143.586
  H     -150.241     336.777     147.295
  P     -154.283     337.294     149.999
  C     -153.526     334.969     149.129
  O     -153.909     335.755     150.241
  O     -154.603     337.372     148.432
  O     -155.436     337.792     150.810
  H     -155.564     337.453     148.296
  H     -152.868     334.169     149.476
  H     -153.000     335.563     148.376
  H     -154.418     334.523     148.680
  H     -150.413     332.669     145.720
  H     -149.348     332.473     147.092
  H     -149.269     333.926     146.125

 3  4  5  6  7  8  9  10  11  12  13  24  27  28  29  30  32 0
 6-311+G(2d,p)
 ****
 34  35 0
 6-311+G(2d,p)
 ****
 1  2  14  15  16  17  18  19  20  21  22  23  25  26 0
 3-21G
 ****
 31  33  36  37  38  39  40  41  42  43  44  45  46 0
 3-21G
 ****


