%nproc=1
%NoSave
%Mem=1900MB
#P OB98/GEN NMR

erre ene a

0 1
  C       85.506     -62.016      67.954
  O       86.640     -62.891      68.030
  P       87.810     -62.731      69.117
  C       88.381     -63.692      71.453
  O       87.496     -63.727      70.338
  C       87.779     -64.439      72.646
  O       86.543     -63.810      73.061
  C       87.388     -65.884      72.379
  O       88.511     -66.740      72.283
  C       86.478     -66.173      73.571
  O       87.236     -66.557      74.727
  C       85.809     -64.805      73.811
  N       84.400     -64.792      73.457
  C       83.599     -65.784      74.032
  O       84.102     -66.662      74.732
  N       82.249     -65.762      73.783
  C       81.760     -64.897      72.951
  N       80.413     -64.911      72.759
  C       82.590     -63.922      72.220
  C       83.888     -63.923      72.520
  O       88.052     -61.320      69.542
  O       89.112     -63.360      68.433
  H       89.911     -62.950      68.814
  H       86.606     -66.610      75.472
  H       82.148     -63.245      71.503
  H       84.568     -63.229      72.039
  H       85.918     -64.512      74.862
  H       85.772     -66.984      73.364
  H       86.800     -65.934      71.453
  H       88.495     -64.385      73.477
  H       79.871     -65.586      73.284
  H       88.541     -62.646      71.735
  H       79.930     -64.266      72.151
  H       89.343     -64.126      71.163
  P       88.380     -68.006      71.307
  C       88.352     -68.140      68.715
  O       88.940     -67.573      69.870
  O       86.800     -68.143      71.077
  O       88.959     -69.270      71.852
  H       86.552     -69.085      71.060
  H       88.467     -67.439      67.884
  H       87.288     -68.345      68.861
  H       88.869     -69.069      68.466
  H       84.870     -62.326      67.151
  H       85.839     -61.014      67.779
  H       84.963     -62.055      68.875

 3  4  5  6  7  8  9  10  11  12  13  24  27  28  29  30  32 0
 6-311+G(2d,p)
 ****
 34  35 0
 6-311+G(2d,p)
 ****
 1  2  14  15  16  17  18  19  20  21  22  23  25  26 0
 3-21G
 ****
 31  33  36  37  38  39  40  41  42  43  44  45  46 0
 3-21G
 ****


