%nproc=1
%NoSave
%Mem=1900MB
#P OB98/GEN NMR

erre ene a

0 1
  C     -139.152     147.690      80.869
  O     -139.253     149.058      80.516
  P     -139.877     149.434      79.088
  C     -137.683     149.130      77.673
  O     -138.670     150.001      78.194
  C     -136.542     149.933      77.045
  O     -135.528     149.011      76.554
  C     -136.962     150.821      75.865
  O     -136.158     152.008      75.918
  C     -136.586     149.977      74.659
  O     -136.422     150.749      73.477
  C     -135.303     149.312      75.162
  N     -134.947     148.099      74.426
  C     -133.867     148.157      73.551
  O     -133.208     149.179      73.345
  N     -133.576     146.998      72.884
  C     -134.283     145.831      72.948
  O     -133.986     144.825      72.315
  C     -135.441     145.839      73.854
  C     -135.709     146.950      74.547
  O     -140.732     150.734      79.458
  O     -140.653     148.327      78.459
  H     -140.309     151.285      80.139
  H     -136.127     150.149      72.765
  H     -132.773     147.007      72.272
  H     -136.037     144.934      73.923
  H     -136.561     146.980      75.216
  H     -134.468     150.026      75.118
  H     -137.376     149.236      74.473
  H     -138.023     151.089      75.898
  H     -136.073     150.539      77.832
  H     -138.132     148.491      76.907
  H     -137.310     148.483      78.476
  P     -136.866     153.385      76.363
  C     -138.471     153.392      74.293
  O     -137.478     154.057      75.045
  O     -135.567     154.285      76.654
  O     -137.772     153.272      77.546
  H     -134.912     154.245      75.939
  H     -138.983     154.124      73.660
  H     -139.207     152.912      74.938
  H     -138.001     152.643      73.651
  H     -138.719     147.604      81.844
  H     -138.534     147.183      80.158
  H     -140.127     147.249      80.872

 3  4  5  6  7  8  9  10  11  12  13  24  28  29  30  31  32 0
 6-311+G(2d,p)
 ****
 33  34 0
 6-311+G(2d,p)
 ****
 1  2  14  15  16  17  18  19  20  21  22  23  25  26  27 0
 3-21G
 ****
 35  36  37  38  39  40  41  42  43  44  45 0
 3-21G
 ****


