%nproc=1
%NoSave
%Mem=1900MB
#P OB98/GEN NMR

erre ene a

0 1
  C      212.504    -263.915     -38.838
  O      212.576    -262.669     -38.156
  P      212.998    -261.370     -38.991
  C      214.826    -260.485     -37.378
  O      213.535    -260.288     -37.933
  C      215.106    -259.479     -36.259
  O      215.461    -258.195     -36.862
  C      213.927    -259.216     -35.315
  O      214.467    -258.956     -34.019
  C      213.315    -257.954     -35.867
  O      212.506    -257.269     -34.905
  C      214.575    -257.206     -36.297
  N      214.811    -252.196     -37.308
  C      215.203    -252.908     -36.230
  N      215.111    -254.246     -36.037
  C      214.540    -254.842     -37.110
  C      214.060    -254.231     -38.253
  C      214.214    -252.840     -38.339
  N      213.828    -252.100     -39.433
  N      213.515    -255.168     -39.106
  C      213.655    -256.326     -38.483
  N      214.297    -256.182     -37.279
  O      211.592    -260.776     -39.458
  O      213.897    -261.622     -40.154
  H      211.826    -257.890     -34.582
  H      211.492    -260.861     -40.430
  H      215.664    -252.341     -35.420
  H      213.325    -257.282     -38.861
  H      215.081    -256.730     -35.450
  H      212.677    -258.188     -36.725
  H      213.207    -260.052     -35.259
  H      215.983    -259.821     -35.696
  H      215.570    -260.344     -38.167
  H      214.099    -251.136     -39.487
  H      213.559    -252.592     -40.280
  H      214.907    -261.502     -36.988
  P      213.744    -259.653     -32.768
  C      212.355    -257.671     -31.846
  O      213.484    -258.516     -31.676
  O      214.922    -260.539     -32.105
  O      212.564    -260.490     -33.133
  H      214.534    -261.304     -31.655
  H      211.969    -257.387     -30.858
  H      211.558    -258.157     -32.414
  H      212.661    -256.760     -32.371
  H      212.211    -264.681     -38.151
  H      213.463    -264.152     -39.250
  H      211.784    -263.849     -39.626

 3  4  5  6  7  8  9  10  11  12  22  25  29  30  31  32 0
 6-311+G(2d,p)
 ****
 33  36  37 0
 6-311+G(2d,p)
 ****
 1  2  13  14  15  16  17  18  19  20  21  23  24  26 0
 3-21G
 ****
 27  28  34  35  38  39  40  41  42  43  44  45  46  47  48 0
 3-21G
 ****


