%nproc=1
%NoSave
%Mem=1900MB
#P OB98/GEN NMR

erre ene a

0 1
  C      -56.148     561.769     354.502
  O      -56.593     562.861     353.724
  H      -56.888     560.969     354.424
  H      -56.053     562.070     355.544
  H      -55.184     561.395     354.135
  P      -55.565     564.041     353.386
  C      -57.448     565.815     353.319
  O      -56.393     565.181     352.612
  C      -58.385     566.562     352.358
  O      -57.611     567.568     351.641
  C      -58.968     565.614     351.297
  O      -60.245     566.070     350.830
  C      -57.969     565.716     350.166
  O      -58.518     565.355     348.895
  C      -57.540     567.181     350.264
  N      -54.668     568.569     346.270
  C      -56.011     568.260     346.317
  N      -56.684     568.325     345.131
  N      -56.642     567.885     347.399
  C      -55.828     567.792     348.485
  C      -54.478     568.052     348.570
  C      -53.808     568.492     347.365
  O      -52.610     568.763     347.270
  N      -54.001     567.832     349.842
  C      -55.055     567.434     350.521
  N      -56.191     567.416     349.754
  O      -54.653     563.425     352.223
  O      -54.737     564.526     354.538
  H      -57.814     565.455     348.230
  H      -53.794     563.890     352.180
  H      -54.239     568.875     345.414
  H      -55.057     567.173     351.577
  H      -58.227     567.819     349.693
  H      -57.153     565.014     350.366
  H      -56.196     568.413     344.252
  H      -59.069     564.593     351.653
  H      -57.565     567.808     345.086
  H      -59.156     567.097     352.923
  H      -56.984     566.504     354.032
  H      -58.014     565.072     353.906
  P      -61.564     565.409     351.460
  C      -63.339     564.673     349.625
  O      -62.814     565.665     350.491
  O      -61.883     566.322     352.729
  O      -61.421     563.960     351.827
  H      -61.796     565.795     353.557
  H      -64.167     565.077     349.081
  H      -63.666     563.833     350.202
  H      -62.580     564.360     348.939

 6  7  8  9  10  11  12  13  14  15  26  29  33  34 0
 6-311+G(2d,p)
 ****
 36  38  39  40  41 0
 6-311+G(2d,p)
 ****
 1  2  3  4  5  16  17  18  19  20  21  22  23  24  25 0
 3-21G
 ****
 27  28  30  31  32  35  37  42  43  44  45  46  47 0
 3-21G
 ****
 48  49 0
 3-21G
 ****


