%nproc=1
%NoSave
%Mem=1900MB
#P OB98/GEN NMR

erre ene a

0 1
  C        0.486       6.925      20.803
  O        1.499       7.592      21.530
  H        0.599       5.848      20.955
  H        0.574       7.137      19.735
  H       -0.501       7.226      21.163
  P        1.602       9.185      21.409
  C       -0.070      11.145      21.641
  O        0.101       9.741      21.482
  C       -1.261      11.637      20.821
  O       -0.967      11.558      19.412
  C       -2.535      10.826      21.025
  O       -3.132      11.140      22.266
  C       -3.327      11.237      19.795
  O       -3.921      12.532      19.975
  C       -2.211      11.293      18.723
  N       -2.112      10.077      17.923
  C       -2.659      10.140      16.637
  O       -3.198      11.172      16.242
  N       -2.593       9.021      15.843
  C       -1.998       7.954      16.273
  N       -1.963       6.883      15.436
  C       -1.379       7.858      17.608
  C       -1.482       8.940      18.377
  O        2.401       9.710      20.256
  O        2.223       9.639      22.812
  H       -4.538      12.445      20.729
  H        3.193       9.719      22.747
  H       -0.884       6.950      17.922
  H       -1.053       8.953      19.374
  H       -2.379      12.136      18.039
  H       -4.136      10.543      19.572
  H       -2.318       9.755      20.953
  H       -1.425      12.695      21.065
  H       -2.385       7.003      14.520
  H        0.851      11.623      21.290
  H       -1.394       6.066      15.597
  H       -0.209      11.400      22.697
  P       -4.218      10.174      22.944
  C       -4.069       7.916      24.163
  O       -3.452       8.793      23.234
  O       -5.500      10.036      22.195
  O       -4.400      10.783      24.412
  H       -4.968      11.593      24.381
  H       -3.471       7.036      24.274
  H       -5.041       7.645      23.806
  H       -4.161       8.406      25.110

 6  7  8  9  10  11  12  13  14  15  16  26  30  31  32  33  35 0
 6-311+G(2d,p)
 ****
 37  38 0
 6-311+G(2d,p)
 ****
 1  2  3  4  5  17  18  19  20  21  22  23  24  25 0
 3-21G
 ****
 27  28  29  34  36  39  40  41  42  43  44  45  46 0
 3-21G
 ****


