%nproc=1
%NoSave
%Mem=1900MB
#P OB98/GEN NMR

erre ene a

0 1
  C     -616.418     993.470    -428.382
  O     -615.278     993.528    -429.250
  P     -613.824     993.766    -428.599
  C     -612.570     991.647    -429.363
  O     -613.171     992.336    -428.273
  C     -613.367     990.377    -429.699
  O     -614.708     990.686    -430.146
  C     -612.749     989.574    -430.848
  O     -611.587     988.889    -430.406
  C     -613.909     988.693    -431.255
  O     -614.001     987.527    -430.393
  C     -615.117     989.610    -431.026
  N     -615.667     990.155    -432.261
  C     -616.226     989.216    -433.154
  O     -616.191     988.017    -432.885
  N     -616.775     989.663    -434.327
  C     -616.771     990.934    -434.599
  N     -617.332     991.337    -435.772
  C     -616.189     991.957    -433.685
  C     -615.639     991.486    -432.556
  O     -613.776     994.756    -427.484
  O     -612.952     994.260    -429.859
  H     -613.221     986.986    -430.570
  H     -612.268     994.864    -429.536
  H     -616.219     993.011    -433.956
  H     -615.190     992.174    -431.845
  H     -615.924     989.070    -430.523
  H     -613.793     988.318    -432.276
  H     -612.487     990.260    -431.678
  H     -613.415     989.753    -428.796
  H     -617.711     990.609    -436.363
  H     -611.545     991.395    -429.103
  H     -617.439     992.309    -436.039
  H     -612.531     992.323    -430.230
  P     -610.153     989.460    -430.879
  C     -608.554     989.060    -428.880
  O     -609.373     989.981    -429.607
  O     -610.545     990.820    -431.661
  O     -609.387     988.547    -431.787
  H     -609.927     990.961    -432.392
  H     -607.863     989.624    -428.254
  H     -607.971     988.423    -429.577
  H     -609.176     988.428    -428.259
  H     -617.301     993.308    -428.964
  H     -616.507     994.393    -427.848
  H     -616.296     992.666    -427.687

 3  4  5  6  7  8  9  10  11  12  13  23  27  28  29  30  32 0
 6-311+G(2d,p)
 ****
 34  35 0
 6-311+G(2d,p)
 ****
 1  2  14  15  16  17  18  19  20  21  22  24  25  26 0
 3-21G
 ****
 31  33  36  37  38  39  40  41  42  43  44  45  46 0
 3-21G
 ****


