%nproc=1
%NoSave
%Mem=1900MB
#P OB98/GEN NMR

erre ene a

0 1
  C     -242.473    -274.712     558.834
  O     -243.556    -275.031     559.698
  P     -243.627    -276.319     560.633
  C     -245.381    -275.313     562.316
  O     -245.041    -276.341     561.382
  C     -246.889    -275.318     562.615
  O     -247.605    -274.917     561.410
  C     -247.404    -276.714     563.017
  O     -248.332    -276.695     564.100
  C     -247.895    -277.282     561.700
  O     -248.805    -278.361     561.840
  C     -248.440    -276.040     560.990
  N     -250.528    -278.240     556.886
  C     -250.713    -278.530     558.227
  N     -251.557    -279.552     558.514
  N     -250.120    -277.885     559.192
  C     -249.244    -276.947     558.761
  C     -248.959    -276.584     557.472
  C     -249.667    -277.262     556.404
  O     -249.551    -277.034     555.205
  N     -248.021    -275.576     557.426
  C     -247.724    -275.352     558.691
  N     -248.453    -276.158     559.538
  O     -242.421    -276.603     561.463
  O     -243.777    -277.544     559.581
  H     -249.528    -278.071     562.415
  H     -243.330    -278.314     559.988
  H     -251.040    -278.753     556.175
  H     -247.009    -274.611     559.039
  H     -249.465    -275.812     561.285
  H     -247.024    -277.676     561.152
  H     -251.953    -280.153     557.806
  H     -246.586    -277.338     563.395
  H     -251.518    -279.890     559.469
  H     -247.101    -274.577     563.405
  H     -245.100    -274.364     561.836
  H     -244.790    -275.414     563.232
  P     -248.180    -277.342     565.550
  C     -248.730    -275.078     566.643
  O     -249.023    -276.465     566.592
  O     -246.674    -277.033     565.981
  O     -248.448    -278.810     565.616
  H     -246.191    -277.886     566.124
  H     -249.169    -274.661     567.549
  H     -249.152    -274.575     565.777
  H     -247.646    -274.923     566.674
  H     -242.682    -273.796     558.323
  H     -242.344    -275.498     558.119
  H     -241.578    -274.603     559.410

 3  4  5  6  7  8  9  10  11  12  23  26  30  31 0
 6-311+G(2d,p)
 ****
 33  35  36  37  38 0
 6-311+G(2d,p)
 ****
 1  2  13  14  15  16  17  18  19  20  21  22  24  25 0
 3-21G
 ****
 27  28  29  32  34  39  40  41  42  43  44  45  46  47  48  49 0
 3-21G
 ****


