%nproc=1
%NoSave
%Mem=1900MB
#P OB98/GEN NMR

erre ene a

0 1
  C      -31.326     -44.471     156.940
  O      -32.115     -43.995     158.012
  H      -30.303     -44.108     157.072
  H      -31.709     -44.103     155.986
  H      -31.310     -45.565     156.939
  P      -33.688     -44.295     157.992
  C      -33.840     -46.329     159.580
  O      -33.859     -45.869     158.238
  C      -35.175     -46.990     159.949
  O      -35.394     -48.130     159.070
  C      -35.230     -47.513     161.395
  O      -36.594     -47.439     161.824
  C      -34.805     -48.956     161.206
  O      -35.091     -49.731     162.344
  C      -35.545     -49.295     159.908
  N      -35.035     -50.499     159.271
  C      -35.975     -51.493     158.986
  O      -37.158     -51.332     159.284
  N      -35.545     -52.656     158.400
  C      -34.281     -52.839     158.183
  N      -33.920     -54.020     157.613
  C      -33.249     -51.838     158.523
  C      -33.692     -50.700     159.055
  O      -34.437     -43.759     156.818
  O      -34.219     -43.656     159.362
  H      -34.882     -50.679     162.184
  H      -34.689     -42.822     159.176
  H      -32.206     -52.045     158.338
  H      -33.010     -49.904     159.339
  H      -36.619     -49.428     160.096
  H      -33.724     -49.021     161.049
  H      -34.587     -46.951     162.076
  H      -35.986     -46.279     159.755
  H      -34.660     -54.681     157.407
  H      -33.664     -45.463     160.223
  H      -32.966     -54.281     157.416
  H      -33.025     -47.046     159.724
  P      -37.128     -46.317     162.838
  C      -38.280     -44.596     161.300
  O      -37.138     -44.896     162.098
  O      -36.429     -46.309     164.159
  O      -38.685     -46.643     163.036
  H      -38.956     -46.371     163.932
  H      -38.165     -43.626     160.863
  H      -39.157     -44.610     161.913
  H      -38.375     -45.327     160.525

 6  7  8  9  10  11  12  13  14  15  16  26  30  31  32  33  35 0
 6-311+G(2d,p)
 ****
 37  38 0
 6-311+G(2d,p)
 ****
 1  2  3  4  5  17  18  19  20  21  22  23  24  25 0
 3-21G
 ****
 27  28  29  34  36  39  40  41  42  43  44  45  46 0
 3-21G
 ****


