%nproc=1
%NoSave
%Mem=1900MB
#P OB98/GEN NMR

erre ene a

0 1
  C     -284.289    -534.143     389.505
  O     -285.512    -534.485     390.168
  P     -286.608    -535.304     389.328
  C     -288.907    -534.738     390.412
  O     -287.835    -535.668     390.301
  C     -290.080    -535.326     391.202
  O     -290.823    -536.274     390.384
  C     -289.651    -536.082     392.467
  O     -290.700    -535.972     393.443
  C     -289.590    -537.521     391.994
  O     -289.632    -538.440     393.081
  C     -290.796    -537.556     391.054
  N     -291.022    -542.558     390.478
  C     -291.105    -541.795     391.623
  N     -291.314    -542.454     392.783
  N     -290.994    -540.487     391.637
  C     -290.828    -539.961     390.389
  C     -290.726    -540.613     389.189
  C     -290.820    -542.068     389.194
  O     -290.745    -542.798     388.216
  N     -290.525    -539.739     388.152
  C     -290.512    -538.551     388.737
  N     -290.720    -538.633     390.088
  O     -285.891    -536.720     389.085
  O     -286.986    -534.658     388.029
  H     -289.392    -539.327     392.736
  H     -285.629    -536.796     388.156
  H     -291.106    -543.568     390.536
  H     -290.342    -537.610     388.222
  H     -291.749    -537.680     391.598
  H     -288.655    -537.692     391.437
  H     -291.460    -543.451     392.842
  H     -288.714    -535.741     392.913
  H     -291.421    -541.914     393.631
  H     -290.760    -534.514     391.475
  H     -289.248    -534.437     389.421
  H     -288.524    -533.826     390.887
  P     -290.606    -534.743     394.471
  C     -291.019    -536.412     396.427
  O     -291.397    -535.206     395.793
  O     -291.568    -533.637     393.830
  O     -289.226    -534.225     394.696
  H     -291.304    -532.743     394.130
  H     -290.440    -536.171     397.321
  H     -290.410    -537.049     395.769
  H     -291.920    -536.953     396.721
  H     -283.657    -533.603     390.179
  H     -284.504    -533.534     388.652
  H     -283.793    -535.037     389.189

 3  4  5  6  7  8  9  10  11  12  23  26  30  31 0
 6-311+G(2d,p)
 ****
 33  35  36  37  38 0
 6-311+G(2d,p)
 ****
 1  2  13  14  15  16  17  18  19  20  21  22  24  25 0
 3-21G
 ****
 27  28  29  32  34  39  40  41  42  43  44  45  46  47  48  49 0
 3-21G
 ****


