%nproc=1
%NoSave
%Mem=1900MB
#P OB98/GEN NMR

erre ene a

0 1
  C      877.803    -134.851     235.142
  O      877.199    -136.035     235.652
  P      876.696    -137.234     234.696
  C      878.423    -139.004     235.445
  O      877.042    -138.635     235.399
  C      878.730    -139.930     236.624
  O      878.914    -139.173     237.840
  C      877.613    -140.939     236.936
  O      877.646    -142.021     236.033
  C      877.936    -141.292     238.387
  O      878.991    -142.269     238.445
  C      878.422    -139.948     238.939
  N      875.424    -139.867     243.096
  C      876.391    -140.718     242.688
  N      877.146    -140.682     241.581
  C      876.833    -139.598     240.834
  C      875.872    -138.646     241.116
  C      875.150    -138.804     242.304
  N      874.150    -137.942     242.707
  N      875.816    -137.692     240.111
  C      876.744    -138.062     239.244
  N      877.394    -139.205     239.653
  O      877.181    -137.125     233.276
  O      875.098    -137.164     234.757
  H      878.710    -143.027     237.908
  H      874.726    -137.515     233.921
  H      876.595    -141.562     243.361
  H      876.991    -137.536     238.343
  H      879.261    -140.069     239.644
  H      877.073    -141.705     238.923
  H      876.628    -140.442     236.890
  H      879.668    -140.453     236.409
  H      879.020    -138.093     235.535
  H      873.655    -138.147     243.558
  H      873.897    -137.164     242.101
  H      878.676    -139.505     234.501
  P      876.473    -143.109     236.023
  C      875.782    -142.619     233.589
  O      876.294    -143.586     234.500
  O      875.216    -142.703     236.717
  O      877.136    -144.393     236.718
  H      876.434    -144.899     237.174
  H      874.707    -142.546     233.710
  H      876.020    -142.944     232.567
  H      876.250    -141.646     233.775
  H      878.054    -134.201     235.954
  H      877.118    -134.355     234.486
  H      878.691    -135.107     234.603

 3  4  5  6  7  8  9  10  11  12  22  25  29  30  31  32 0
 6-311+G(2d,p)
 ****
 33  36  37 0
 6-311+G(2d,p)
 ****
 1  2  13  14  15  16  17  18  19  20  21  23  24  26 0
 3-21G
 ****
 27  28  34  35  38  39  40  41  42  43  44  45  46  47  48 0
 3-21G
 ****


