%nproc=1
%NoSave
%Mem=1900MB
#P OB98/GEN NMR

erre ene a

0 1
  C       -3.552    -311.903    -240.747
  O       -2.230    -312.324    -240.474
  H       -3.848    -312.288    -241.726
  H       -3.599    -310.810    -240.770
  H       -4.240    -312.289    -239.989
  P       -1.657    -312.012    -239.013
  C        0.811    -312.718    -239.581
  O       -0.089    -311.693    -239.173
  C        1.976    -312.111    -240.358
  O        1.568    -311.703    -241.681
  C        2.530    -310.836    -239.743
  O        3.244    -311.072    -238.549
  C        3.390    -310.327    -240.890
  O        4.639    -311.026    -240.950
  C        2.504    -310.680    -242.112
  N        1.819    -309.516    -242.657
  C        2.532    -308.779    -243.611
  O        3.662    -309.128    -243.949
  N        1.955    -307.647    -244.134
  C        0.765    -307.295    -243.759
  N        0.253    -306.160    -244.305
  C       -0.033    -308.058    -242.777
  C        0.551    -309.141    -242.268
  O       -1.654    -313.456    -238.321
  O       -2.395    -310.961    -238.249
  H        5.145    -310.623    -241.684
  H       -1.183    -314.132    -238.836
  H       -1.025    -307.732    -242.500
  H        0.037    -309.758    -241.540
  H        3.112    -311.121    -242.912
  H        3.624    -309.265    -240.788
  H        1.721    -310.112    -239.579
  H        2.754    -312.880    -240.459
  H        0.837    -305.651    -244.959
  H        0.293    -313.472    -240.184
  H       -0.647    -305.773    -244.066
  H        1.176    -313.214    -238.676
  P        3.673    -309.852    -237.600
  C        2.990    -310.909    -235.354
  O        4.071    -310.503    -236.185
  O        2.686    -308.738    -237.513
  O        5.099    -309.416    -238.186
  H        5.777    -310.113    -238.168
  H        3.375    -311.324    -234.446
  H        2.405    -311.646    -235.864
  H        2.377    -310.062    -235.127

 6  7  8  9  10  11  12  13  14  15  16  26  30  31  32  33  35 0
 6-311+G(2d,p)
 ****
 37  38 0
 6-311+G(2d,p)
 ****
 1  2  3  4  5  17  18  19  20  21  22  23  24  25 0
 3-21G
 ****
 27  28  29  34  36  39  40  41  42  43  44  45  46 0
 3-21G
 ****


