%nproc=1
%NoSave
%Mem=1900MB
#P OB98/GEN NMR

erre ene a

0 1
  C      181.366    -226.118    -831.062
  O      181.988    -225.068    -831.814
  P      182.524    -223.785    -831.011
  C      185.033    -224.445    -831.236
  O      183.943    -224.162    -830.366
  C      186.360    -224.320    -830.484
  O      186.488    -223.034    -829.846
  C      186.541    -225.360    -829.379
  O      187.012    -226.597    -829.887
  C      187.613    -224.701    -828.532
  O      188.910    -224.921    -829.132
  C      187.231    -223.221    -828.608
  N      187.228    -222.365    -823.620
  C      188.244    -222.804    -824.445
  N      189.443    -223.036    -823.858
  N      188.103    -222.991    -825.732
  C      186.864    -222.694    -826.187
  C      185.774    -222.260    -825.468
  C      185.937    -222.068    -824.042
  O      185.070    -221.703    -823.252
  N      184.684    -222.075    -826.275
  C      185.113    -222.386    -827.480
  N      186.426    -222.786    -827.480
  O      181.555    -223.735    -829.737
  O      182.486    -222.509    -831.790
  H      189.082    -225.880    -829.078
  H      181.484    -222.814    -829.416
  H      187.387    -222.245    -822.638
  H      184.514    -222.333    -828.382
  H      188.111    -222.559    -828.650
  H      187.662    -225.120    -827.515
  H      189.629    -222.864    -822.882
  H      185.615    -225.474    -828.793
  H      190.202    -223.322    -824.456
  H      187.175    -224.427    -831.209
  H      185.024    -223.767    -832.089
  H      184.902    -225.450    -831.654
  P      186.510    -227.941    -829.166
  C      185.709    -229.232    -831.276
  O      185.347    -228.535    -830.100
  O      185.731    -227.388    -827.880
  O      187.595    -228.892    -828.789
  H      185.803    -228.024    -827.146
  H      184.812    -229.698    -831.688
  H      186.443    -230.009    -831.057
  H      186.119    -228.533    -832.011
  H      181.062    -226.900    -831.726
  H      180.509    -225.731    -830.550
  H      182.062    -226.506    -830.348

 3  4  5  6  7  8  9  10  11  12  23  26  30  31 0
 6-311+G(2d,p)
 ****
 33  35  36  37  38 0
 6-311+G(2d,p)
 ****
 1  2  13  14  15  16  17  18  19  20  21  22  24  25 0
 3-21G
 ****
 27  28  29  32  34  39  40  41  42  43  44  45  46  47  48  49 0
 3-21G
 ****


