%nproc=1
%NoSave
%Mem=1900MB
#P OB98/GEN NMR

erre ene a

0 1
  C     -917.295     269.811     807.522
  O     -918.509     269.164     807.843
  H     -916.873     269.334     806.632
  H     -916.582     269.701     808.347
  H     -917.459     270.874     807.302
  P     -919.482     269.836     808.926
  C     -918.944     268.622     811.134
  O     -918.710     269.768     810.331
  C     -918.013     268.632     812.355
  O     -918.479     269.668     813.284
  C     -917.974     267.291     813.117
  O     -916.644     267.101     813.641
  C     -918.954     267.552     814.239
  O     -918.778     266.677     815.317
  C     -918.645     269.021     814.556
  N     -919.703     269.633     815.361
  C     -919.717     269.322     816.721
  O     -918.903     268.575     817.260
  N     -920.749     269.863     817.437
  C     -921.819     270.552     816.915
  O     -922.748     270.935     817.612
  C     -921.772     270.787     815.467
  C     -920.738     270.340     814.773
  O     -920.887     269.312     808.962
  O     -919.433     271.404     808.585
  H     -917.859     266.737     815.657
  H     -920.215     271.860     808.955
  H     -920.771     269.654     818.434
  H     -922.594     271.338     815.026
  H     -920.667     270.487     813.699
  H     -917.691     269.114     815.104
  H     -919.981     267.440     813.882
  H     -918.246     266.439     812.494
  H     -917.009     268.934     812.031
  H     -918.751     267.729     810.527
  H     -919.991     268.613     811.462
  P     -915.591     266.128     812.936
  C     -915.701     263.914     814.256
  O     -916.075     264.590     813.044
  O     -914.177     266.340     813.375
  O     -915.733     266.451     811.373
  H     -914.837     266.538     810.984
  H     -916.066     262.908     814.231
  H     -916.124     264.426     815.095
  H     -914.635     263.904     814.345

 6  7  8  9  10  11  12  13  14  15  16  26  31  32  33  34  35 0
 6-311+G(2d,p)
 ****
 36  37 0
 6-311+G(2d,p)
 ****
 1  2  3  4  5  17  18  19  20  21  22  23  24  25 0
 3-21G
 ****
 27  28  29  30  38  39  40  41  42  43  44  45 0
 3-21G
 ****


