%nproc=1
%NoSave
%Mem=1900MB
#P OB98/GEN NMR

erre ene a

0 1
  C      524.832    -317.803      87.971
  O      526.050    -318.525      87.984
  P      526.502    -319.306      89.310
  C      527.624    -321.429      88.387
  O      527.824    -320.138      88.960
  C      528.818    -321.816      87.517
  O      528.787    -321.082      86.268
  C      530.174    -321.509      88.137
  O      530.497    -322.462      89.136
  C      531.075    -321.525      86.916
  O      531.431    -322.877      86.566
  C      530.153    -320.925      85.832
  N      530.605    -317.385      82.187
  C      530.481    -318.730      82.125
  N      530.407    -319.611      83.151
  C      530.496    -318.972      84.324
  C      530.661    -317.613      84.546
  C      530.695    -316.794      83.395
  N      530.754    -315.413      83.447
  N      530.744    -317.347      85.897
  C      530.640    -318.527      86.482
  N      530.432    -319.528      85.578
  O      525.419    -320.088      89.983
  O      527.047    -318.145      90.264
  H      531.956    -323.239      87.309
  H      526.514    -318.123      91.085
  H      530.427    -319.152      81.121
  H      530.701    -318.697      87.548
  H      530.246    -321.458      84.885
  H      532.007    -320.971      87.066
  H      530.167    -320.494      88.565
  H      528.732    -322.890      87.277
  H      526.712    -321.403      87.787
  H      530.623    -314.927      82.580
  H      530.518    -314.955      84.323
  H      527.486    -322.163      89.196
  P      531.249    -321.995      90.466
  C      530.842    -324.199      91.731
  O      531.811    -323.317      91.176
  O      530.475    -321.079      91.363
  O      532.580    -321.289      89.929
  H      532.836    -320.568      90.537
  H      530.491    -323.802      92.684
  H      531.308    -325.175      91.896
  H      529.990    -324.322      91.048
  H      524.696    -317.350      87.011
  H      524.860    -317.043      88.723
  H      524.020    -318.471      88.169

 3  4  5  6  7  8  9  10  11  12  22  25  29  30  31  32 0
 6-311+G(2d,p)
 ****
 33  36  37 0
 6-311+G(2d,p)
 ****
 1  2  13  14  15  16  17  18  19  20  21  23  24  26 0
 3-21G
 ****
 27  28  34  35  38  39  40  41  42  43  44  45  46  47  48 0
 3-21G
 ****


