%nproc=1
%NoSave
%Mem=1900MB
#P OB98/GEN NMR

erre ene a

0 1
  C      115.521    -104.672    -855.425
  O      116.466    -105.707    -855.670
  P      117.181    -106.368    -854.392
  C      118.399    -108.641    -854.038
  O      117.387    -107.921    -854.723
  C      118.570    -110.037    -854.659
  O      117.313    -110.742    -854.632
  C      119.000    -110.026    -856.116
  O      120.380    -109.727    -856.242
  C      118.617    -111.448    -856.516
  O      119.609    -112.377    -856.058
  C      117.307    -111.661    -855.750
  N      112.186    -111.909    -855.937
  C      113.070    -112.279    -854.990
  N      114.426    -112.196    -855.021
  C      114.835    -111.667    -856.182
  C      114.055    -111.276    -857.256
  C      112.662    -111.398    -857.108
  N      111.766    -111.030    -858.073
  N      114.833    -110.795    -858.289
  C      116.070    -110.901    -857.844
  N      116.125    -111.404    -856.567
  O      116.020    -106.376    -853.291
  O      118.404    -105.648    -853.911
  H      120.485    -111.949    -856.155
  H      116.381    -106.239    -852.395
  H      112.650    -112.686    -854.075
  H      116.958    -110.623    -858.407
  H      117.203    -112.676    -855.349
  H      118.525    -111.578    -857.605
  H      118.408    -109.305    -856.689
  H      119.287    -110.591    -854.039
  H      118.115    -108.756    -852.990
  H      110.795    -111.295    -857.951
  H      112.123    -110.786    -858.993
  H      119.335    -108.078    -854.086
  P      120.933    -109.435    -857.722
  C      122.819    -107.856    -858.488
  O      121.778    -108.075    -857.545
  O      119.611    -108.929    -858.470
  O      121.658    -110.566    -858.356
  H      119.137    -108.256    -857.951
  H      123.274    -106.885    -858.284
  H      122.420    -107.865    -859.503
  H      123.582    -108.631    -858.374
  H      115.124    -104.324    -856.356
  H      116.002    -103.862    -854.917
  H      114.726    -105.051    -854.818

 3  4  5  6  7  8  9  10  11  12  22  25  29  30  31  32 0
 6-311+G(2d,p)
 ****
 33  36  37 0
 6-311+G(2d,p)
 ****
 1  2  13  14  15  16  17  18  19  20  21  23  24  26 0
 3-21G
 ****
 27  28  34  35  38  39  40  41  42  43  44  45  46  47  48 0
 3-21G
 ****


