%nproc=1
%NoSave
%Mem=1900MB
#P OB98/GEN NMR

erre ene a

0 1
  C      878.495    -608.515     -94.646
  O      878.794    -609.878     -94.798
  P      877.854    -610.994     -94.120
  C      879.650    -612.821     -94.346
  O      878.813    -612.124     -93.456
  C      881.007    -613.034     -93.708
  O      881.780    -611.798     -93.704
  C      880.967    -613.461     -92.257
  O      880.644    -614.853     -92.148
  C      882.386    -613.112     -91.787
  O      883.309    -614.164     -92.171
  C      882.658    -611.843     -92.567
  N      885.133    -608.210     -89.957
  C      885.578    -609.358     -90.527
  N      884.837    -610.300     -91.180
  C      883.521    -609.950     -91.197
  C      882.950    -608.853     -90.623
  C      883.815    -607.904     -89.979
  N      883.397    -606.719     -89.459
  N      881.572    -608.864     -90.821
  C      881.338    -609.976     -91.478
  N      882.504    -610.636     -91.794
  O      876.756    -611.529     -94.981
  O      877.240    -610.230     -92.832
  H      884.172    -613.959     -91.745
  H      876.268    -610.205     -92.924
  H      886.634    -609.552     -90.452
  H      880.350    -610.324     -91.769
  H      883.697    -611.827     -92.948
  H      882.441    -612.995     -90.699
  H      880.252    -612.857     -91.709
  H      881.584    -613.762     -94.289
  H      879.765    -612.211     -95.263
  H      884.111    -606.067     -89.179
  H      882.507    -606.331     -89.751
  H      879.193    -613.791     -94.608
  P      879.410    -615.299     -91.220
  C      880.669    -617.540     -90.891
  O      879.947    -616.454     -90.276
  O      878.122    -615.634     -91.942
  O      879.220    -614.070     -90.208
  H      878.278    -613.996     -89.979
  H      879.936    -618.204     -91.359
  H      881.232    -618.037     -90.127
  H      881.354    -617.140     -91.652
  H      879.226    -607.930     -95.163
  H      878.505    -608.261     -93.607
  H      877.526    -608.315     -95.053

 3  4  5  6  7  8  9  10  11  12  22  25  29  30  31  32 0
 6-311+G(2d,p)
 ****
 33  36  37 0
 6-311+G(2d,p)
 ****
 1  2  13  14  15  16  17  18  19  20  21  23  24  26 0
 3-21G
 ****
 27  28  34  35  38  39  40  41  42  43  44  45  46  47  48 0
 3-21G
 ****


