%nproc=1
%NoSave
%Mem=1900MB
#P OB98/GEN NMR

erre ene a

0 1
  C      388.343     375.686    -872.669
  O      389.402     376.152    -873.501
  P      389.930     377.649    -873.268
  C      392.431     376.857    -873.100
  O      391.348     377.555    -872.520
  C      393.699     376.990    -872.237
  O      394.030     378.397    -872.134
  C      393.577     376.500    -870.803
  O      394.884     376.289    -870.266
  C      392.943     377.691    -870.115
  O      393.092     377.634    -868.691
  C      393.627     378.884    -870.822
  N      392.769     380.074    -870.951
  C      392.214     380.635    -869.812
  O      392.396     380.209    -868.676
  N      391.401     381.717    -870.000
  C      391.116     382.312    -871.195
  O      390.295     383.216    -871.321
  C      391.829     381.765    -872.359
  C      392.610     380.693    -872.202
  O      388.933     378.233    -872.145
  O      389.942     378.483    -874.499
  H      394.031     377.878    -868.509
  H      388.305     378.859    -872.561
  H      390.930     382.091    -869.188
  H      391.690     382.252    -873.319
  H      393.133     380.269    -873.058
  H      394.534     379.202    -870.269
  H      391.864     377.708    -870.320
  H      392.971     375.594    -870.687
  H      394.533     376.506    -872.749
  H      392.608     377.234    -874.109
  H      392.175     375.796    -873.196
  P      395.491     374.800    -870.336
  C      397.867     375.413    -871.123
  O      396.625     374.818    -871.455
  O      394.493     373.695    -870.403
  O      396.355     374.719    -868.977
  H      396.515     373.785    -868.757
  H      398.662     374.927    -871.698
  H      398.072     375.294    -870.053
  H      397.838     376.479    -871.374
  H      388.097     374.679    -872.935
  H      387.484     376.310    -872.801
  H      388.653     375.718    -871.645

 3  4  5  6  7  8  9  10  11  12  13  23  28  29  30  31  32 0
 6-311+G(2d,p)
 ****
 33  34 0
 6-311+G(2d,p)
 ****
 1  2  14  15  16  17  18  19  20  21  22  24  25  26  27 0
 3-21G
 ****
 35  36  37  38  39  40  41  42  43  44  45 0
 3-21G
 ****


