%nproc=1
%NoSave
%Mem=1900MB
#P OB98/GEN NMR

erre ene a

0 1
  C       75.951      73.081     -88.070
  O       76.682      72.880     -86.877
  H       75.403      74.025     -87.990
  H       75.233      72.272     -88.228
  H       76.632      73.145     -88.923
  P       77.450      71.490     -86.667
  C       76.931      69.247     -85.509
  O       76.506      70.587     -85.732
  C       75.927      68.502     -84.629
  O       76.188      68.841     -83.240
  C       74.465      68.844     -84.936
  O       73.684      67.655     -84.793
  C       74.120      69.843     -83.852
  O       72.727      69.894     -83.612
  C       74.965      69.349     -82.673
  N       75.209      70.422     -81.710
  C       74.208      70.645     -80.757
  O       73.192      69.951     -80.748
  N       74.347      71.694     -79.883
  C       75.369      72.485     -79.983
  N       75.426      73.527     -79.110
  C       76.436      72.301     -80.988
  C       76.295      71.261     -81.810
  O       78.870      71.584     -86.215
  O       77.336      70.776     -88.096
  H       72.292      70.398     -84.330
  H       78.106      71.009     -88.648
  H       77.263      72.994     -81.035
  H       77.023      71.056     -82.588
  H       74.463      68.518     -82.156
  H       74.449      70.847     -84.155
  H       74.327      69.264     -85.939
  H       76.107      67.423     -84.730
  H       74.659      73.625     -78.452
  H       77.905      69.281     -85.009
  H       76.147      74.232     -79.118
  H       77.046      68.732     -86.467
  P       72.756      67.134     -85.996
  C       70.466      67.637     -87.026
  O       71.457      68.075     -86.103
  O       72.459      65.669     -85.968
  O       73.592      67.511     -87.313
  H       73.393      66.863     -88.016
  H       69.647      68.326     -87.024
  H       70.117      66.667     -86.740
  H       70.889      67.589     -88.008

 6  7  8  9  10  11  12  13  14  15  16  26  30  31  32  33  35 0
 6-311+G(2d,p)
 ****
 37  38 0
 6-311+G(2d,p)
 ****
 1  2  3  4  5  17  18  19  20  21  22  23  24  25 0
 3-21G
 ****
 27  28  29  34  36  39  40  41  42  43  44  45  46 0
 3-21G
 ****


