%nproc=1
%NoSave
%Mem=1900MB
#P OB98/GEN NMR

erre ene a

0 1
  C     1118.627    -329.627     977.480
  O     1118.789    -329.917     976.094
  P     1119.277    -331.399     975.706
  C     1117.799    -331.694     973.558
  O     1118.051    -332.059     974.913
  C     1116.394    -331.097     973.440
  O     1116.318    -329.824     974.137
  C     1115.973    -330.803     972.021
  O     1115.638    -331.992     971.313
  C     1114.801    -329.848     972.243
  O     1113.619    -330.588     972.578
  C     1115.283    -329.047     973.471
  N     1115.761    -327.710     973.135
  C     1114.860    -326.669     973.368
  O     1113.718    -326.849     973.800
  N     1115.311    -325.422     973.050
  C     1116.518    -325.115     972.518
  O     1116.872    -323.963     972.267
  C     1117.408    -326.254     972.262
  C     1116.995    -327.480     972.570
  O     1119.264    -332.119     977.135
  O     1120.596    -331.414     975.003
  H     1118.541    -331.798     977.704
  H     1113.312    -331.011     971.751
  H     1114.680    -324.654     973.216
  H     1118.380    -326.047     971.807
  H     1117.642    -328.336     972.381
  H     1114.476    -328.945     974.198
  H     1114.566    -329.237     971.365
  H     1116.773    -330.273     971.488
  H     1115.690    -331.788     973.914
  H     1117.872    -332.568     972.914
  H     1118.558    -330.975     973.245
  P     1116.729    -332.551     970.260
  C     1116.769    -334.966     971.244
  O     1117.468    -333.779     970.969
  O     1117.816    -331.370     970.294
  O     1116.165    -332.822     968.903
  H     1118.013    -331.066     971.191
  H     1117.487    -335.772     971.393
  H     1116.108    -335.239     970.420
  H     1116.175    -334.846     972.160
  H     1118.301    -328.615     977.597
  H     1119.561    -329.761     977.984
  H     1117.897    -330.287     977.900

 3  4  5  6  7  8  9  10  11  12  13  24  28  29  30  31  32 0
 6-311+G(2d,p)
 ****
 33  34 0
 6-311+G(2d,p)
 ****
 1  2  14  15  16  17  18  19  20  21  22  23  25  26  27 0
 3-21G
 ****
 35  36  37  38  39  40  41  42  43  44  45 0
 3-21G
 ****


