%nproc=1
%NoSave
%Mem=1900MB
#P OB98/GEN NMR

erre ene a

0 1
  C      270.682     617.733    -891.860
  O      269.467     617.015    -891.980
  H      270.562     618.703    -892.350
  H      271.483     617.193    -892.370
  H      270.924     617.887    -890.810
  P      269.365     615.528    -891.390
  C      266.809     615.661    -891.630
  O      267.982     614.925    -891.970
  C      265.563     615.059    -892.300
  O      265.624     615.325    -893.730
  C      265.441     613.549    -892.110
  O      264.103     613.217    -891.720
  C      265.721     612.976    -893.500
  O      265.146     611.693    -893.710
  C      265.174     614.118    -894.390
  N      265.658     614.017    -895.760
  C      265.180     612.904    -896.490
  O      264.407     612.111    -895.960
  N      265.638     612.741    -897.760
  C      266.528     613.538    -898.260
  N      266.959     613.285    -899.520
  C      267.063     614.696    -897.520
  C      266.599     614.877    -896.280
  O      269.529     615.428    -889.910
  O      270.472     614.693    -892.200
  H      264.166     611.798    -893.770
  H      270.716     613.891    -891.680
  H      267.820     615.335    -897.960
  H      266.937     615.691    -895.650
  H      264.083     614.113    -894.390
  H      266.812     612.900    -893.640
  H      266.140     613.145    -891.370
  H      264.677     615.589    -891.930
  H      266.563     612.469    -900.000
  H      266.944     616.709    -891.940
  H      267.674     613.823    -900.000
  H      266.673     615.626    -890.550
  P      263.717     613.511    -890.190
  C      261.129     613.708    -889.970
  O      262.276     612.867    -889.910
  O      263.416     615.101    -890.200
  O      264.785     613.175    -889.210
  H      264.116     615.575    -889.710
  H      260.252     613.131    -889.761
  H      261.050     614.135    -890.948
  H      261.222     614.490    -889.246

 6  7  8  9  10  11  12  13  14  15  16  26  30  31  32  33  35 0
 6-311+G(2d,p)
 ****
 37  38 0
 6-311+G(2d,p)
 ****
 1  2  3  4  5  17  18  19  20  21  22  23  24  25 0
 3-21G
 ****
 27  28  29  34  36  39  40  41  42  43  44  45  46 0
 3-21G
 ****


