%nproc=1
%NoSave
%Mem=1900MB
#P OB98/GEN NMR

erre ene a

0 1
  C     -265.202     237.858     -64.009
  O     -266.556     238.121     -64.351
  P     -266.851     238.662     -65.837
  C     -268.653     240.503     -65.502
  O     -268.383     239.141     -65.821
  C     -270.145     240.722     -65.309
  O     -270.859     240.296     -66.485
  C     -270.757     239.938     -64.156
  O     -270.536     240.572     -62.904
  C     -272.232     239.968     -64.532
  O     -272.813     241.219     -64.118
  C     -272.183     239.882     -66.064
  N     -275.693     236.319     -66.866
  C     -275.821     237.583     -66.323
  N     -277.069     237.957     -65.966
  N     -274.817     238.399     -66.142
  C     -273.638     237.906     -66.582
  C     -273.383     236.669     -67.137
  C     -274.493     235.754     -67.281
  O     -274.430     234.599     -67.697
  N     -272.060     236.537     -67.472
  C     -271.524     237.697     -67.160
  N     -272.433     238.552     -66.586
  O     -266.890     237.322     -66.708
  O     -265.858     239.639     -66.363
  H     -272.269     241.930     -64.508
  H     -266.667     237.525     -67.639
  H     -276.501     235.737     -66.998
  H     -270.487     237.961     -67.326
  H     -272.895     240.574     -66.527
  H     -272.812     239.172     -64.053
  H     -277.893     237.426     -66.199
  H     -270.400     238.904     -64.151
  H     -277.189     238.894     -65.599
  H     -270.319     241.798     -65.180
  H     -268.299     241.141     -66.321
  H     -268.102     240.767     -64.593
  P     -269.348     239.980     -61.999
  C     -271.049     240.042     -60.034
  O     -269.745     240.346     -60.493
  O     -268.121     240.946     -62.327
  O     -269.029     238.547     -62.268
  H     -267.274     240.481     -62.178
  H     -271.412     239.102     -60.459
  H     -271.729     240.853     -60.308
  H     -271.028     239.949     -58.948
  H     -265.151     237.507     -63.000
  H     -264.629     238.757     -64.103
  H     -264.806     237.112     -64.667

 3  4  5  6  7  8  9  10  11  12  23  26  30  31  33  0
 6-311+G(2d,p)
 ****
 35  36  37  38 0
 6-311+G(2d,p)
 ****
 1  2  13  14  15  16  17  18  19  20  21  22  24  25  27  28  29 0
 3-21G
 ****
 32  34  39  40  41  42  43  44  45  46  47  48  49 0
 3-21G
 ****


