%nproc=1
%NoSave
%Mem=1900MB
#P OB98/GEN NMR

erre ene a

0 1
  C     -159.654    1159.023     676.051
  O     -159.236    1159.215     677.387
  H     -160.698    1159.347     675.969
  H     -159.592    1157.974     675.773
  H     -159.049    1159.630     675.371
  P     -157.801    1158.653     677.839
  C     -156.794    1160.811     676.891
  O     -156.741    1159.394     676.872
  C     -155.440    1161.432     676.560
  O     -154.427    1160.909     677.454
  C     -154.969    1161.151     675.120
  O     -154.494    1162.364     674.530
  C     -153.824    1160.164     675.303
  O     -152.912    1160.189     674.205
  C     -153.265    1160.613     676.660
  N     -152.423    1159.601     677.286
  C     -151.344    1159.130     676.522
  O     -151.171    1159.538     675.374
  N     -150.519    1158.181     677.066
  C     -150.774    1157.705     678.238
  N     -149.920    1156.752     678.722
  C     -151.921    1158.136     679.064
  C     -152.695    1159.085     678.527
  O     -157.695    1157.164     677.863
  O     -157.531    1159.339     679.260
  H     -153.407    1159.952     673.390
  H     -156.843    1158.820     679.749
  H     -152.094    1157.697     680.033
  H     -153.556    1159.466     679.065
  H     -152.676    1161.532     676.553
  H     -154.231    1159.147     675.386
  H     -155.749    1160.742     674.486
  H     -155.494    1162.508     676.750
  H     -149.143    1156.488     678.129
  H     -157.121    1161.138     677.887
  H     -150.021    1156.310     679.622
  H     -157.528    1161.139     676.146
  P     -155.367    1162.951     673.316
  C     -155.627    1165.412     674.086
  O     -156.261    1164.158     673.893
  O     -156.434    1161.787     673.039
  O     -154.570    1163.269     672.106
  H     -156.158    1161.261     672.269
  H     -156.336    1166.115     674.471
  H     -155.245    1165.766     673.151
  H     -154.821    1165.301     674.781

 6  7  8  9  10  11  12  13  14  15  16  26  30  31  32  33  35 0
 6-311+G(2d,p)
 ****
 37  38 0
 6-311+G(2d,p)
 ****
 1  2  3  4  5  17  18  19  20  21  22  23  24  25 0
 3-21G
 ****
 27  28  29  34  36  39  40  41  42  43  44  45  46 0
 3-21G
 ****


