%nproc=1
%NoSave
%Mem=1900MB
#P OB98/GEN NMR

erre ene a

0 1
  C      133.692      45.302      44.332
  O      133.052      46.149      45.278
  P      133.895      47.365      45.898
  C      134.679      45.812      47.823
  O      135.061      46.716      46.797
  C      135.875      45.435      48.698
  O      136.877      44.780      47.876
  C      136.559      46.624      49.386
  O      137.053      46.158      50.647
  C      137.735      46.918      48.470
  O      138.764      47.648      49.132
  C      138.117      45.499      48.055
  N      142.706      46.377      45.978
  C      142.265      46.468      47.249
  N      141.027      46.215      47.725
  C      140.205      45.837      46.733
  C      140.504      45.732      45.384
  C      141.828      46.017      45.010
  N      142.284      45.915      43.716
  N      139.391      45.341      44.669
  C      138.438      45.212      45.569
  N      138.889      45.477      46.830
  O      132.886      47.973      46.980
  O      134.336      48.399      44.922
  H      138.344      48.329      49.691
  H      132.584      48.857      46.695
  H      143.004      46.777      47.983
  H      137.413      44.933      45.359
  H      138.698      44.983      48.830
  H      137.398      47.508      47.613
  H      135.910      47.492      49.529
  H      135.540      44.703      49.444
  H      134.286      44.902      47.360
  H      143.275      46.003      43.549
  H      141.693      45.469      43.023
  H      133.890      46.261      48.433
  P      136.945      47.169      51.886
  C      139.451      47.809      51.692
  O      138.110      48.251      51.700
  O      137.440      46.286      53.129
  O      135.573      47.713      52.112
  H      137.028      46.607      53.952
  H      140.029      48.446      51.017
  H      139.536      46.769      51.355
  H      139.864      47.893      52.701
  H      133.008      44.544      44.012
  H      134.546      44.843      44.784
  H      134.003      45.881      43.488

 3  4  5  6  7  8  9  10  11  12  22  25  29  30  31  32 0
 6-311+G(2d,p)
 ****
 33  36  37 0
 6-311+G(2d,p)
 ****
 1  2  13  14  15  16  17  18  19  20  21  23  24  26 0
 3-21G
 ****
 27  28  34  35  38  39  40  41  42  43  44  45  46  47  48 0
 3-21G
 ****


