%nproc=1
%NoSave
%Mem=1900MB
#P OB98/GEN NMR

erre ene a

0 1
  C      -50.066      -2.219     -25.718
  O      -51.387      -2.566     -25.371
  P      -52.311      -1.542     -24.553
  C      -51.832      -0.238     -22.386
  O      -51.706      -1.483     -23.066
  C      -50.643      -0.027     -21.454
  O      -49.439       0.277     -22.203
  C      -50.799       1.150     -20.503
  O      -51.804       1.061     -19.517
  C      -49.370       1.335     -20.021
  O      -49.046       0.411     -18.984
  C      -48.567       1.009     -21.306
  N      -48.032       2.215     -21.935
  C      -46.801       2.653     -21.461
  O      -46.172       2.085     -20.569
  N      -46.315       3.800     -22.028
  C      -46.949       4.559     -22.968
  O      -46.476       5.603     -23.401
  C      -48.255       4.055     -23.418
  C      -48.731       2.924     -22.891
  O      -53.775      -1.818     -24.616
  O      -51.892      -0.115     -25.145
  H      -48.092       0.499     -18.798
  H      -50.951       0.112     -25.033
  H      -45.430       4.142     -21.691
  H      -48.778       4.628     -24.172
  H      -49.693       2.534     -23.206
  H      -47.727       0.345     -21.072
  H      -49.202       2.340     -19.621
  H      -51.052       2.037     -21.099
  H      -50.460      -0.960     -20.914
  H      -52.752      -0.249     -21.793
  H      -51.913       0.572     -23.118
  P      -52.087       2.212     -18.440
  C      -50.879       3.186     -16.364
  O      -50.930       2.161     -17.332
  O      -53.494       2.349     -17.960
  O      -51.690       3.530     -19.268
  H      -52.242       4.274     -18.964
  H      -50.009       3.018     -15.723
  H      -51.779       3.169     -15.742
  H      -50.775       4.163     -16.844
  H      -49.615      -3.026     -26.257
  H      -49.503      -2.025     -24.829
  H      -50.077      -1.343     -26.332

 3  4  5  6  7  8  9  10  11  12  13  23  28  29  30  31  32 0
 6-311+G(2d,p)
 ****
 33  34 0
 6-311+G(2d,p)
 ****
 1  2  14  15  16  17  18  19  20  21  22  24  25  26  27 0
 3-21G
 ****
 35  36  37  38  39  40  41  42  43  44  45 0
 3-21G
 ****


