%nproc=1
%NoSave
%Mem=1900MB
#P OB98/GEN NMR

erre ene a

0 1
  C     -173.348       6.176    -292.302
  O     -174.446       6.185    -291.413
  H     -172.894       5.183    -292.289
  H     -172.603       6.907    -291.980
  H     -173.678       6.401    -293.319
  P     -175.315       7.532    -291.347
  C     -175.269       7.678    -288.759
  O     -176.064       7.520    -289.925
  C     -175.394       6.456    -287.851
  O     -174.507       5.408    -288.344
  C     -175.020       6.719    -286.384
  O     -175.872       5.913    -285.558
  C     -173.608       6.164    -286.289
  O     -173.231       5.847    -284.951
  C     -173.729       4.959    -287.219
  N     -169.513       2.778    -285.548
  C     -170.675       3.112    -284.881
  N     -170.725       2.821    -283.564
  N     -171.701       3.682    -285.455
  C     -171.526       3.884    -286.784
  C     -170.428       3.606    -287.559
  C     -169.287       2.998    -286.904
  O     -168.223       2.698    -287.439
  N     -170.630       3.990    -288.861
  C     -171.850       4.497    -288.871
  N     -172.434       4.456    -287.635
  O     -176.490       7.242    -292.395
  O     -174.576       8.787    -291.669
  H     -172.407       5.320    -284.988
  H     -176.254       7.595    -293.273
  H     -168.748       2.352    -285.056
  H     -172.351       4.908    -289.738
  H     -174.258       4.120    -286.748
  H     -172.889       6.893    -286.683
  H     -169.994       2.342    -283.065
  H     -175.092       7.767    -286.079
  H     -171.586       3.019    -283.065
  H     -176.416       6.066    -287.930
  H     -175.608       8.566    -288.214
  H     -174.222       7.819    -289.053
  P     -176.584       6.610    -284.305
  C     -176.300       4.300    -283.141
  O     -177.107       5.455    -283.325
  O     -177.942       7.177    -284.938
  O     -175.779       7.692    -283.665
  H     -178.239       7.959    -284.435
  H     -176.786       3.630    -282.463
  H     -175.351       4.588    -282.739
  H     -176.155       3.812    -284.082

 6  7  8  9  10  11  12  13  14  15  26  29  33  34 0
 6-311+G(2d,p)
 ****
 36  38  39  40  41 0
 6-311+G(2d,p)
 ****
 1  2  3  4  5  16  17  18  19  20  21  22  23  24  25 0
 3-21G
 ****
 27  28  30  31  32  35  37  42  43  44  45  46  47 0
 3-21G
 ****
 48  49 0
 3-21G
 ****


