%nproc=1
%NoSave
%Mem=1900MB
#P OB98/GEN NMR

erre ene a

0 1
  C       33.636     231.462     543.620
  O       32.596     231.369     542.671
  P       31.822     232.671     542.154
  C       33.168     232.852     539.964
  O       32.847     233.471     541.206
  C       32.523     233.624     538.805
  O       31.078     233.420     538.854
  C       32.791     235.142     538.874
  O       33.331     235.704     537.675
  C       31.445     235.699     539.310
  O       31.267     237.069     539.007
  C       30.473     234.715     538.652
  N       29.127     234.795     539.213
  C       28.065     234.559     538.348
  O       28.186     234.276     537.158
  N       26.816     234.711     538.878
  C       26.528     235.184     540.122
  O       25.382     235.391     540.499
  C       27.689     235.457     540.981
  C       28.916     235.232     540.507
  O       31.193     233.507     543.216
  O       30.784     232.076     541.091
  H       30.461     237.378     539.461
  H       31.189     231.597     540.345
  H       26.037     234.544     538.261
  H       27.492     235.841     541.969
  H       29.794     235.421     541.116
  H       30.408     234.877     537.577
  H       31.381     235.601     540.398
  H       33.545     235.374     539.637
  H       32.903     233.199     537.872
  H       32.786     231.831     539.968
  H       34.254     232.799     539.845
  P       34.584     236.693     537.608
  C       36.537     235.005     537.310
  O       35.867     235.913     538.156
  O       34.363     238.042     538.210
  O       34.879     236.817     536.040
  H       35.274     237.688     535.852
  H       37.010     234.233     537.925
  H       37.316     235.536     536.755
  H       35.846     234.529     536.609
  H       34.017     230.484     543.828
  H       33.258     231.897     544.522
  H       34.421     232.075     543.230

 3  4  5  6  7  8  9  10  11  12  13  23  28  29  30  31  32 0
 6-311+G(2d,p)
 ****
 33  34 0
 6-311+G(2d,p)
 ****
 1  2  14  15  16  17  18  19  20  21  22  24  25  26  27 0
 3-21G
 ****
 35  36  37  38  39  40  41  42  43  44  45 0
 3-21G
 ****


