%nproc=1
%NoSave
%Mem=1900MB
#P OB98/GEN NMR

erre ene a

0 1
  C     -117.847     -70.559     576.387
  O     -117.325     -70.493     577.699
  H     -118.609     -69.781     576.276
  H     -118.314     -71.530     576.210
  H     -117.057     -70.379     575.653
  P     -116.228     -71.573     578.147
  C     -114.981     -69.898     579.666
  O     -115.700     -71.126     579.596
  C     -114.688     -69.539     581.128
  O     -115.942     -69.149     581.750
  C     -114.104     -70.721     581.917
  O     -112.896     -70.395     582.599
  C     -115.291     -71.195     582.759
  O     -114.933     -71.855     583.955
  C     -116.114     -69.913     582.954
  N     -117.533     -70.155     583.215
  C     -118.009     -69.864     584.486
  O     -117.334     -69.409     585.407
  N     -119.343     -70.113     584.694
  C     -120.215     -70.623     583.778
  O     -121.401     -70.823     584.018
  C     -119.643     -70.942     582.455
  C     -118.354     -70.695     582.236
  O     -115.154     -71.852     577.150
  O     -117.088     -72.888     578.469
  H     -115.761     -72.202     584.354
  H     -116.973     -73.537     577.748
  H     -119.703     -69.890     585.605
  H     -120.309     -71.359     581.710
  H     -117.901     -70.918     581.273
  H     -115.721     -69.326     583.784
  H     -115.877     -71.903     582.162
  H     -113.807     -71.532     581.245
  H     -114.023     -68.669     581.153
  H     -115.594     -69.123     579.199
  H     -114.038     -69.991     579.113
  P     -111.433     -70.785     582.099
  C     -110.232     -68.538     582.741
  O     -110.360     -69.945     582.936
  O     -111.236     -70.846     580.620
  O     -111.223     -72.286     582.671
  H     -110.650     -72.748     582.024
  H     -109.468     -68.157     583.386
  H     -111.162     -68.060     582.969
  H     -109.970     -68.341     581.722

 6  7  8  9  10  11  12  13  14  15  16  26  31  32  33  34  35 0
 6-311+G(2d,p)
 ****
 36  37 0
 6-311+G(2d,p)
 ****
 1  2  3  4  5  17  18  19  20  21  22  23  24  25 0
 3-21G
 ****
 27  28  29  30  38  39  40  41  42  43  44  45 0
 3-21G
 ****


