%nproc=1
%NoSave
%Mem=1900MB
#P OB98/GEN NMR

erre ene a

0 1
  C       99.311     573.618     410.364
  O      100.348     574.507     410.004
  H       99.741     572.640     410.567
  H       98.588     573.524     409.546
  H       98.806     573.978     411.267
  P       99.916     575.999     409.607
  C       99.014     575.790     407.199
  O       98.691     575.802     408.587
  C       97.805     575.355     406.375
  O       96.737     576.321     406.577
  C       98.085     575.287     404.869
  O       97.339     574.203     404.301
  C       97.516     576.597     404.349
  O       97.192     576.539     402.963
  C       96.318     576.790     405.281
  N       93.710     580.414     402.838
  C       93.804     579.082     402.645
  N       94.510     578.183     403.362
  C       95.116     578.778     404.406
  C       95.106     580.122     404.735
  C       94.367     580.964     403.882
  N       94.288     582.327     404.053
  N       95.885     580.351     405.849
  C       96.345     579.166     406.200
  N       95.920     578.188     405.344
  O      101.013     576.883     409.120
  O       99.177     576.495     410.940
  H       97.950     576.156     402.479
  H       98.556     575.820     411.272
  H       93.254     578.685     401.798
  H       96.995     578.958     407.046
  H       95.443     576.216     404.967
  H       98.249     577.401     404.489
  H       99.140     575.172     404.628
  H       97.440     574.395     406.758
  H       99.848     575.101     407.013
  H       93.732     582.858     403.396
  H       94.764     582.762     404.828
  H       99.327     576.801     406.917
  P       97.851     572.705     404.550
  C       99.578     572.452     402.650
  O       99.374     572.588     404.050
  O       96.949     571.624     404.058
  O       98.005     572.642     406.146
  H       97.666     571.779     406.462
  H      100.626     572.384     402.447
  H       99.172     573.304     402.146
  H       99.090     571.566     402.303

 6  7  8  9  10  11  12  13  14  15  25  28  32  33  34  35 0
 6-311+G(2d,p)
 ****
 36  39  40 0
 6-311+G(2d,p)
 ****
 1  2  3  4  5  16  17  18  19  20  21  22  23  24 0
 3-21G
 ****
 26  27  29  30  31  37  38  41  42  43  44  45  46  47 0
 3-21G
 ****
 48 0
 3-21G
 ****


