%nproc=1
%NoSave
%Mem=1900MB
#P OB98/GEN NMR

erre ene a

0 1
  C     -344.478    -102.513      48.062
  O     -344.743    -103.893      48.212
  H     -345.415    -102.001      47.833
  H     -343.774    -102.347      47.240
  H     -344.069    -102.108      48.991
  P     -343.482    -104.838      48.517
  C     -345.015    -106.132      50.132
  O     -343.782    -105.442      49.975
  C     -345.285    -106.416      51.612
  O     -344.277    -107.337      52.096
  C     -345.229    -105.163      52.491
  O     -346.236    -105.250      53.498
  C     -343.857    -105.240      53.136
  O     -343.797    -104.542      54.376
  C     -343.653    -106.752      53.251
  N     -340.036    -109.029      56.035
  C     -341.375    -108.955      56.183
  N     -342.271    -108.336      55.382
  C     -341.658    -107.798      54.313
  C     -340.305    -107.794      54.026
  C     -339.470    -108.442      54.955
  N     -338.102    -108.504      54.828
  N     -340.059    -107.102      52.858
  C     -341.246    -106.710      52.434
  N     -342.243    -107.094      53.292
  O     -342.143    -104.202      48.353
  O     -343.770    -106.086      47.560
  H     -344.009    -103.600      54.210
  H     -344.707    -106.356      47.598
  H     -341.785    -109.445      57.062
  H     -341.435    -106.137      51.532
  H     -344.117    -107.170      54.152
  H     -343.108    -104.800      52.464
  H     -345.358    -104.243      51.917
  H     -346.253    -106.923      51.703
  H     -344.992    -107.078      49.580
  H     -337.580    -109.001      55.531
  H     -337.662    -108.087      54.016
  H     -345.809    -105.505      49.716
  P     -346.856    -103.890      54.077
  C     -349.193    -103.708      52.995
  O     -347.839    -103.264      52.974
  O     -345.883    -102.936      54.684
  O     -347.888    -104.427      55.181
  H     -347.877    -103.822      55.948
  H     -349.741    -103.220      52.216
  H     -349.631    -103.471      53.942
  H     -349.224    -104.767      52.843

 6  7  8  9  10  11  12  13  14  15  25  28  32  33  34  35 0
 6-311+G(2d,p)
 ****
 36  39  40 0
 6-311+G(2d,p)
 ****
 1  2  3  4  5  16  17  18  19  20  21  22  23  24 0
 3-21G
 ****
 26  27  29  30  31  37  38  41  42  43  44  45  46  47 0
 3-21G
 ****
 48 0
 3-21G
 ****


