%nproc=1
%NoSave
%Mem=1900MB
#P OB98/GEN NMR

erre ene a

0 1
  C      965.385    -419.293     227.084
  O      965.796    -419.965     225.884
  P      967.323    -420.397     225.623
  C      968.783    -422.502     225.927
  O      967.567    -421.846     226.278
  C      968.781    -423.968     226.374
  O      968.751    -424.066     227.806
  C      967.600    -424.788     225.858
  O      967.798    -425.164     224.507
  C      967.589    -425.940     226.860
  O      968.566    -426.938     226.493
  C      967.989    -425.242     228.166
  N      965.241    -426.548     232.284
  C      966.347    -427.085     231.719
  N      967.022    -426.687     230.614
  C      966.449    -425.583     230.095
  C      965.322    -424.926     230.552
  C      964.698    -425.453     231.695
  N      963.559    -424.907     232.250
  N      965.015    -423.851     229.732
  C      965.972    -423.852     228.815
  N      966.861    -424.880     228.988
  O      968.318    -419.364     226.029
  O      967.405    -420.681     224.051
  H      969.378    -426.477     226.229
  H      968.311    -420.514     223.735
  H      966.751    -427.960     232.238
  H      966.052    -423.128     228.012
  H      968.656    -425.873     228.771
  H      966.621    -426.445     226.906
  H      966.674    -424.212     225.957
  H      969.731    -424.414     226.040
  H      969.608    -421.972     226.404
  H      963.147    -425.361     233.052
  H      963.127    -424.115     231.796
  H      968.897    -422.440     224.837
  P      967.627    -424.078     223.339
  C      969.184    -422.482     222.062
  O      969.101    -423.622     222.902
  O      966.673    -422.968     223.614
  O      967.156    -424.960     222.087
  H      966.601    -424.404     221.492
  H      968.977    -422.787     221.022
  H      970.188    -422.075     222.116
  H      968.479    -421.718     222.371
  H      964.333    -419.103     227.044
  H      965.911    -418.366     227.172
  H      965.605    -419.909     227.931

 3  4  5  6  7  8  9  10  11  12  22  25  29  30  31  32 0
 6-311+G(2d,p)
 ****
 33  36  37 0
 6-311+G(2d,p)
 ****
 1  2  13  14  15  16  17  18  19  20  21  23  24  26 0
 3-21G
 ****
 27  28  34  35  38  39  40  41  42  43  44  45  46  47  48 0
 3-21G
 ****


