%nproc=1
%NoSave
%Mem=1900MB
#P OB98/GEN NMR

erre ene a

0 1
  C       34.167     -25.558     423.430
  O       35.489     -25.851     423.844
  P       35.913     -27.351     424.213
  C       35.368     -27.381     426.738
  O       34.954     -27.781     425.427
  C       35.494     -28.596     427.656
  O       34.282     -29.375     427.637
  C       36.612     -29.553     427.272
  O       37.869     -29.043     427.665
  C       36.179     -30.819     428.006
  O       36.584     -30.783     429.384
  C       34.644     -30.753     427.887
  N       34.125     -31.646     426.855
  C       33.983     -32.990     427.224
  O       34.317     -33.363     428.352
  N       33.511     -33.880     426.287
  C       33.233     -33.472     425.094
  N       32.783     -34.403     424.211
  C       33.397     -32.069     424.656
  C       33.844     -31.219     425.577
  O       37.372     -27.563     424.442
  O       35.331     -28.205     422.986
  H       36.363     -29.885     429.706
  H       35.875     -28.081     422.168
  H       33.161     -31.778     423.642
  H       33.993     -30.172     425.345
  H       34.171     -31.025     428.840
  H       36.618     -31.722     427.568
  H       36.588     -29.737     426.188
  H       35.647     -28.229     428.681
  H       32.713     -35.356     424.544
  H       34.619     -26.698     427.141
  H       32.569     -34.202     423.244
  H       36.318     -26.846     426.663
  P       39.101     -29.070     426.645
  C       40.389     -30.730     428.119
  O       39.860     -30.472     426.836
  O       39.978     -27.860     426.662
  O       38.394     -29.234     425.213
  H       38.817     -28.626     424.579
  H       40.574     -31.808     428.214
  H       39.691     -30.420     428.899
  H       41.334     -30.198     428.237
  H       34.080     -24.510     423.230
  H       33.482     -25.831     424.205
  H       33.940     -26.111     422.542

 3  4  5  6  7  8  9  10  11  12  13  23  27  28  29  30  32 0
 6-311+G(2d,p)
 ****
 34  35 0
 6-311+G(2d,p)
 ****
 1  2  14  15  16  17  18  19  20  21  22  24  25  26 0
 3-21G
 ****
 31  33  36  37  38  39  40  41  42  43  44  45  46 0
 3-21G
 ****


