%nproc=1
%NoSave
%Mem=1900MB
#P OB98/GEN NMR

erre ene a

0 1
  C       18.351       7.611     -56.290
  O       18.955       6.462     -55.737
  P       18.180       5.062     -55.677
  C       17.478       5.612     -53.259
  O       17.039       5.212     -54.553
  C       16.309       5.578     -52.267
  O       15.195       6.336     -52.834
  C       15.810       4.148     -51.977
  O       15.737       3.818     -50.590
  C       14.492       4.092     -52.733
  O       13.609       3.087     -52.275
  C       14.010       5.543     -52.623
  N       12.952       5.855     -53.580
  C       11.639       5.754     -53.129
  O       11.319       5.432     -51.988
  N       10.666       5.978     -54.064
  C       10.866       6.173     -55.397
  O        9.943       6.269     -56.196
  C       12.273       6.231     -55.822
  C       13.238       6.096     -54.909
  O       19.047       3.859     -55.514
  O       17.318       5.066     -57.027
  H       12.767       3.186     -52.757
  H       16.688       5.803     -57.108
  H        9.710       5.908     -53.751
  H       12.463       6.375     -56.876
  H       14.285       6.135     -55.192
  H       13.644       5.766     -51.619
  H       14.718       3.863     -53.782
  H       16.499       3.401     -52.390
  H       16.636       6.076     -51.350
  H       17.869       6.630     -53.318
  H       18.298       4.964     -52.928
  P       15.546       2.341     -50.005
  C       13.313       2.978     -48.833
  O       13.987       2.113     -49.723
  O       16.451       1.983     -48.874
  O       15.827       1.400     -51.271
  H       16.184       0.544     -50.967
  H       12.484       2.433     -48.374
  H       12.906       3.825     -49.394
  H       13.978       3.345     -48.046
  H       19.032       8.434     -56.234
  H       17.462       7.845     -55.742
  H       18.101       7.425     -57.313

 3  4  5  6  7  8  9  10  11  12  13  23  28  29  30  31  32 0
 6-311+G(2d,p)
 ****
 33  34 0
 6-311+G(2d,p)
 ****
 1  2  14  15  16  17  18  19  20  21  22  24  25  26  27 0
 3-21G
 ****
 35  36  37  38  39  40  41  42  43  44  45 0
 3-21G
 ****


