%nproc=1
%NoSave
%Mem=1900MB
#P OB98/GEN NMR

erre ene a

0 1
  C      356.478    -121.298     -33.381
  O      356.155    -121.664     -34.708
  H      356.518    -122.201     -32.768
  H      355.716    -120.629     -32.976
  H      357.456    -120.809     -33.356
  P      355.937    -120.460     -35.749
  C      356.826    -122.236     -37.439
  O      355.892    -121.201     -37.175
  C      357.055    -122.362     -38.941
  O      357.452    -121.091     -39.504
  C      358.160    -123.339     -39.336
  O      357.762    -124.696     -39.265
  C      358.402    -122.895     -40.767
  O      357.330    -123.363     -41.606
  C      358.359    -121.361     -40.609
  N      359.678    -120.774     -40.347
  C      360.433    -120.405     -41.466
  O      359.996    -120.572     -42.603
  N      361.689    -119.882     -41.271
  C      362.143    -119.721     -40.067
  N      363.394    -119.201     -39.938
  C      361.378    -120.085     -38.862
  C      360.169    -120.599     -39.071
  O      357.362    -119.732     -35.777
  O      354.784    -119.556     -35.474
  H      357.277    -124.327     -41.478
  H      357.382    -119.060     -36.503
  H      361.805    -119.945     -37.877
  H      359.545    -120.889     -38.233
  H      357.938    -120.884     -41.502
  H      359.328    -123.284     -41.189
  H      359.073    -123.169     -38.753
  H      356.099    -122.638     -39.402
  H      363.918    -119.018     -40.783
  H      356.424    -123.174     -37.040
  H      363.891    -119.179     -39.057
  H      357.778    -122.020     -36.945
  P      358.615    -125.665     -38.308
  C      356.368    -126.958     -38.071
  O      357.785    -127.028     -38.166
  O      358.461    -124.985     -36.871
  O      360.051    -125.829     -38.700
  H      359.274    -125.101     -36.340
  H      355.967    -127.946     -37.982
  H      355.974    -126.491     -38.950
  H      356.096    -126.384     -37.210

 6  7  8  9  10  11  12  13  14  15  16  26  30  31  32  33  35 0
 6-311+G(2d,p)
 ****
 37  38 0
 6-311+G(2d,p)
 ****
 1  2  3  4  5  17  18  19  20  21  22  23  24  25 0
 3-21G
 ****
 27  28  29  34  36  39  40  41  42  43  44  45  46 0
 3-21G
 ****


