%nproc=1
%NoSave
%Mem=1900MB
#P OB98/GEN NMR

erre ene a

0 1
  C     -889.110    1148.502    -302.151
  O     -890.170    1147.567    -302.247
  H     -889.110    1149.127    -303.040
  H     -888.150    1147.976    -302.094
  H     -889.220    1149.133    -301.258
  P     -890.460    1146.668    -300.940
  C     -892.870    1146.401    -301.854
  O     -891.730    1145.755    -301.296
  C     -893.690    1145.404    -302.680
  O     -893.800    1144.138    -301.986
  C     -895.120    1145.852    -302.971
  O     -895.190    1146.732    -304.079
  C     -895.770    1144.501    -303.290
  O     -895.420    1144.108    -304.626
  C     -895.090    1143.569    -302.250
  N     -898.960    1141.281    -299.893
  C     -898.500    1141.151    -301.207
  N     -899.180    1140.290    -301.995
  N     -897.480    1141.807    -301.683
  C     -896.900    1142.645    -300.788
  C     -897.260    1142.857    -299.465
  C     -898.390    1142.111    -298.935
  O     -898.810    1142.160    -297.799
  N     -896.440    1143.761    -298.869
  C     -895.590    1144.123    -299.820
  N     -895.850    1143.471    -301.005
  O     -891.040    1147.729    -299.891
  O     -889.280    1145.943    -300.377
  H     -895.530    1143.140    -304.681
  H     -890.740    1147.482    -299.001
  H     -899.760    1140.762    -299.577
  H     -894.800    1144.827    -299.698
  H     -894.960    1142.568    -302.637
  H     -896.850    1144.551    -303.250
  H     -900.000    1139.789    -301.705
  H     -895.600    1146.276    -302.078
  H     -898.850    1140.140    -302.958
  H     -893.140    1145.218    -303.617
  H     -892.550    1147.214    -302.516
  H     -893.490    1146.814    -301.047
  P     -895.510    1148.283    -303.791
  C     -893.440    1148.741    -305.273
  O     -894.770    1149.104    -304.949
  O     -894.640    1148.581    -302.499
  O     -896.950    1148.593    -303.576
  H     -895.000    1149.351    -302.005
  H     -893.079    1149.372    -306.058
  H     -893.417    1147.721    -305.596
  H     -892.819    1148.855    -304.409

 6  7  8  9  10  11  12  13  14  15  26  29  33  34 0
 6-311+G(2d,p)
 ****
 36  38  39  40  41 0
 6-311+G(2d,p)
 ****
 1  2  3  4  5  16  17  18  19  20  21  22  23  24  25 0
 3-21G
 ****
 27  28  30  31  32  35  37  42  43  44  45  46  47 0
 3-21G
 ****
 48  49 0
 3-21G
 ****


