%nproc=1
%NoSave
%Mem=1900MB
#P OB98/GEN NMR

erre ene a

0 1
  C     -898.150     533.543     620.276
  O     -898.180     534.695     621.089
  H     -898.290     532.664     620.909
  H     -897.180     533.458     619.776
  H     -898.950     533.559     619.530
  P     -898.290     536.128     620.399
  C     -895.840     536.173     619.576
  O     -897.210     536.143     619.195
  C     -894.940     536.106     618.329
  O     -894.990     537.417     617.645
  C     -893.460     535.776     618.629
  O     -892.930     534.984     617.550
  C     -892.850     537.158     618.632
  O     -891.460     537.120     618.447
  C     -893.630     537.822     617.491
  N     -893.470     539.280     617.524
  C     -892.600     539.847     616.583
  O     -891.960     539.176     615.763
  N     -892.450     541.195     616.679
  C     -892.960     542.015     617.656
  O     -892.680     543.198     617.712
  C     -893.820     541.347     618.639
  C     -894.030     540.036     618.525
  O     -898.190     537.312     621.315
  O     -899.680     536.089     619.600
  H     -891.240     536.702     617.580
  H     -900.000     536.993     619.410
  H     -891.810     541.627     615.993
  H     -894.250     541.955     619.426
  H     -894.670     539.512     619.240
  H     -893.280     537.446     616.505
  H     -893.040     537.661     619.589
  H     -893.340     535.244     619.572
  H     -895.380     535.379     617.631
  H     -895.640     535.305     620.228
  H     -895.630     537.098     620.132
  P     -892.810     533.395     617.647
  C     -890.410     533.525     618.559
  O     -891.730     532.979     618.764
  O     -892.620     532.708     616.332
  O     -894.210     532.930     618.297
  H     -894.560     532.166     617.811
  H     -889.762     533.197     619.345
  H     -890.462     534.594     618.562
  H     -890.027     533.189     617.618

 6  7  8  9  10  11  12  13  14  15  16  26  31  32  33  34  35 0
 6-311+G(2d,p)
 ****
 36  37 0
 6-311+G(2d,p)
 ****
 1  2  3  4  5  17  18  19  20  21  22  23  24  25 0
 3-21G
 ****
 27  28  29  30  38  39  40  41  42  43  44  45 0
 3-21G
 ****


