%nproc=1
%NoSave
%Mem=1900MB
#P OB98/GEN NMR

erre ene a

0 1
  C     -889.540    -520.661    -375.367
  O     -890.610    -520.857    -374.427
  P     -891.760    -519.766    -374.341
  C     -893.300    -521.687    -373.559
  O     -892.940    -520.332    -373.407
  C     -893.910    -522.263    -372.284
  O     -892.830    -522.656    -371.385
  C     -894.770    -521.288    -371.485
  O     -896.180    -521.212    -371.786
  C     -894.650    -521.858    -370.066
  O     -895.620    -522.937    -369.901
  C     -893.240    -522.417    -370.008
  N     -892.000    -520.202    -365.575
  C     -892.980    -521.048    -365.910
  N     -893.260    -521.598    -367.109
  C     -892.340    -521.205    -368.014
  C     -891.280    -520.330    -367.815
  C     -891.110    -519.817    -366.537
  N     -890.100    -518.955    -366.189
  N     -890.570    -520.141    -369.016
  C     -891.220    -520.854    -369.887
  N     -892.290    -521.531    -369.348
  O     -892.210    -519.173    -375.643
  O     -891.100    -518.640    -373.408
  H     -896.480    -522.552    -370.071
  H     -891.380    -517.752    -373.738
  H     -893.650    -521.333    -365.110
  H     -890.950    -520.919    -370.965
  H     -893.180    -523.383    -369.487
  H     -894.890    -521.127    -369.302
  H     -894.350    -520.272    -371.506
  H     -894.490    -523.170    -372.510
  H     -892.410    -522.264    -373.847
  H     -890.080    -518.591    -365.246
  H     -889.490    -518.597    -366.909
  H     -893.980    -521.749    -374.427
  P     -896.710    -520.280    -372.983
  C     -898.970    -521.150    -374.037
  O     -898.310    -520.490    -372.961
  O     -896.080    -520.496    -374.307
  O     -896.550    -518.817    -372.386
  H     -897.130    -518.598    -371.644
  H     -900.000    -521.364    -373.732
  H     -898.470    -522.080    -374.287
  H     -898.980    -520.477    -374.919
  H     -888.853    -521.479    -375.301
  H     -889.030    -519.748    -375.142
  H     -889.940    -520.611    -376.358

 3  4  5  6  7  8  9  10  11  12  22  25  29  30  31  32 0
 6-311+G(2d,p)
 ****
 33  36  37 0
 6-311+G(2d,p)
 ****
 1  2  13  14  15  16  17  18  19  20  21  23  24  26 0
 3-21G
 ****
 27  28  34  35  38  39  40  41  42  43  44  45  46  47  48 0
 3-21G
 ****


