%nproc=1
%NoSave
%Mem=1900MB
#P OB98/GEN NMR

erre ene a

0 1
  C     -147.004     118.761     258.679
  O     -147.841     117.649     258.950
  H     -146.852     119.319     259.608
  H     -147.469     119.429     257.950
  H     -146.035     118.420     258.308
  P     -148.343     116.762     257.714
  C     -150.297     118.433     257.417
  O     -149.210     117.747     256.800
  C     -151.017     119.306     256.393
  O     -150.188     120.422     256.016
  C     -151.338     118.570     255.097
  O     -152.443     117.703     255.267
  C     -151.561     119.739     254.154
  O     -152.871     120.294     254.313
  C     -150.474     120.731     254.630
  N     -149.262     120.674     253.820
  C     -149.202     121.567     252.743
  O     -150.128     122.347     252.526
  N     -148.092     121.536     251.931
  C     -147.129     120.704     252.176
  N     -146.063     120.725     251.334
  C     -147.150     119.756     253.308
  C     -148.236     119.793     254.077
  O     -149.024     115.467     258.046
  O     -147.013     116.535     256.849
  H     -152.827     121.191     253.929
  H     -146.549     115.731     257.141
  H     -146.319     119.082     253.478
  H     -148.331     119.128     254.932
  H     -150.856     121.758     254.608
  H     -151.454     119.437     253.113
  H     -150.458     118.016     254.750
  H     -151.929     119.704     256.854
  H     -146.100     121.384     250.566
  H     -149.877     119.053     258.216
  H     -145.222     120.186     251.476
  H     -151.001     117.720     257.865
  P     -152.464     116.262     254.564
  C     -153.979     117.375     252.791
  O     -152.840     116.545     253.027
  O     -153.297     115.229     255.248
  O     -150.908     115.872     254.486
  H     -150.556     115.615     255.369
  H     -154.126     117.488     251.737
  H     -153.818     118.336     253.234
  H     -154.846     116.923     253.225

 6  7  8  9  10  11  12  13  14  15  16  26  30  31  32  33  35 0
 6-311+G(2d,p)
 ****
 37  38 0
 6-311+G(2d,p)
 ****
 1  2  3  4  5  17  18  19  20  21  22  23  24  25 0
 3-21G
 ****
 27  28  29  34  36  39  40  41  42  43  44  45  46 0
 3-21G
 ****


