%nproc=1
%NoSave
%Mem=1900MB
#P OB98/GEN NMR

erre ene a

0 1
  C        0.311    -218.433      50.463
  O       -0.370    -219.541      51.011
  H        1.287    -218.351      50.953
  H       -0.243    -217.509      50.640
  H        0.471    -218.575      49.391
  P       -1.908    -219.785      50.610
  C       -1.532    -220.271      48.116
  O       -1.852    -220.834      49.383
  C       -1.475    -221.341      47.024
  O       -0.265    -222.127      47.178
  C       -2.663    -222.312      47.044
  O       -3.164    -222.475      45.715
  C       -2.054    -223.616      47.546
  O       -2.806    -224.754      47.133
  C       -0.630    -223.509      46.988
  N        0.309    -224.413      47.644
  C        1.671    -224.158      47.438
  O        2.021    -223.229      46.705
  N        2.596    -224.974      48.031
  C        2.201    -225.997      48.726
  N        3.170    -226.775      49.281
  C        0.777    -226.334      48.932
  C       -0.104    -225.504      48.373
  O       -2.686    -218.542      50.336
  O       -2.501    -220.663      51.807
  H       -2.615    -224.924      46.182
  H       -3.487    -220.592      51.809
  H        0.497    -227.201      49.510
  H       -1.175    -225.668      48.479
  H       -0.618    -223.719      45.908
  H       -2.026    -223.608      48.642
  H       -3.480    -221.984      47.684
  H       -1.388    -220.837      46.053
  H        4.134    -226.510      49.117
  H       -0.569    -219.753      48.195
  H        2.980    -227.598      49.834
  H       -2.312    -219.542      47.859
  P       -4.627    -221.872      45.430
  C       -3.898    -219.449      44.867
  O       -4.465    -220.659      44.388
  O       -4.992    -221.146      46.809
  O       -5.641    -222.904      45.059
  H       -5.593    -221.705      47.336
  H       -3.852    -218.737      44.070
  H       -2.911    -219.638      45.233
  H       -4.504    -219.060      45.659

 6  7  8  9  10  11  12  13  14  15  16  26  30  31  32  33  35 0
 6-311+G(2d,p)
 ****
 37  38 0
 6-311+G(2d,p)
 ****
 1  2  3  4  5  17  18  19  20  21  22  23  24  25 0
 3-21G
 ****
 27  28  29  34  36  39  40  41  42  43  44  45  46 0
 3-21G
 ****


