%nproc=1
%NoSave
%Mem=1900MB
#P OB98/GEN NMR

erre ene a

0 1
  C      -77.758     -56.007     118.268
  O      -76.849     -55.168     117.584
  H      -77.575     -57.041     117.960
  H      -78.784     -55.742     118.001
  H      -77.620     -55.932     119.349
  P      -76.802     -53.611     117.953
  C      -74.800     -53.499     119.579
  O      -75.269     -53.239     118.263
  C      -73.268     -53.492     119.620
  O      -72.791     -54.846     119.423
  C      -72.628     -52.608     118.544
  O      -71.467     -51.977     119.085
  C      -72.222     -53.600     117.470
  O      -71.131     -53.128     116.683
  C      -71.888     -54.839     118.298
  N      -69.367     -58.638     116.117
  C      -68.910     -57.607     116.912
  N      -67.581     -57.566     117.148
  N      -69.686     -56.690     117.428
  C      -70.997     -56.866     117.127
  C      -71.575     -57.846     116.354
  C      -70.700     -58.842     115.771
  O      -71.046     -59.771     115.047
  N      -72.936     -57.676     116.267
  C      -73.178     -56.596     116.986
  N      -72.034     -56.060     117.519
  O      -77.773     -53.183     119.009
  O      -77.081     -52.867     116.565
  H      -71.386     -52.242     116.342
  H      -77.986     -52.507     116.537
  H      -68.725     -59.311     115.736
  H      -74.153     -56.159     117.147
  H      -70.860     -54.825     118.678
  H      -73.071     -53.789     116.801
  H      -66.927     -58.252     116.802
  H      -73.315     -51.849     118.168
  H      -67.222     -56.836     117.753
  H      -72.948     -53.183     120.623
  H      -75.171     -54.483     119.888
  H      -75.199     -52.740     120.262
  P      -71.388     -50.375     119.107
  C      -71.461     -50.756     121.649
  O      -71.042     -49.894     120.601
  O      -72.541     -49.669     118.471
  O      -70.025     -50.074     118.316
  H      -70.132     -49.246     117.808
  H      -71.178     -50.335     122.591
  H      -70.996     -51.713     121.531
  H      -72.524     -50.869     121.614

 6  7  8  9  10  11  12  13  14  15  26  29  33  34 0
 6-311+G(2d,p)
 ****
 36  38  39  40  41 0
 6-311+G(2d,p)
 ****
 1  2  3  4  5  16  17  18  19  20  21  22  23  24  25 0
 3-21G
 ****
 27  28  30  31  32  35  37  42  43  44  45  46  47 0
 3-21G
 ****
 48  49 0
 3-21G
 ****


