%nproc=1
%NoSave
%Mem=1900MB
#P OB98/GEN NMR

erre ene a

0 1
  C      165.743    -250.045     237.738
  O      165.927    -251.302     237.129
  H      166.313    -249.272     237.212
  H      164.680    -249.783     237.701
  H      166.058    -250.086     238.786
  P      167.445    -251.814     236.989
  C      166.759    -254.032     238.143
  O      167.392    -253.416     237.027
  C      166.547    -255.519     237.871
  O      165.541    -255.706     236.851
  C      167.776    -256.256     237.358
  O      168.689    -256.570     238.411
  C      167.140    -257.510     236.779
  O      166.861    -258.448     237.835
  C      165.825    -256.970     236.194
  N      166.193    -259.187     231.566
  C      166.178    -259.707     232.815
  N      166.092    -259.062     233.998
  C      165.984    -257.735     233.808
  C      165.978    -257.062     232.595
  C      166.100    -257.839     231.428
  N      166.120    -257.304     230.163
  N      165.850    -255.699     232.790
  C      165.775    -255.549     234.096
  N      165.857    -256.753     234.755
  O      168.098    -251.428     238.401
  O      168.218    -251.223     235.853
  H      167.724    -258.744     238.186
  H      169.031    -251.168     238.264
  H      166.254    -260.787     232.882
  H      165.651    -254.598     234.605
  H      164.979    -257.639     236.414
  H      167.773    -258.022     236.047
  H      168.277    -255.698     236.558
  H      166.172    -255.984     238.798
  H      165.783    -253.557     238.310
  H      166.004    -257.917     229.376
  H      166.045    -256.295     230.072
  H      167.381    -253.894     239.031
  P      170.226    -256.800     238.006
  C      171.324    -255.720     240.100
  O      171.018    -256.921     239.406
  O      170.680    -255.366     237.444
  O      170.466    -257.886     237.016
  H      171.430    -255.475     236.830
  H      171.846    -255.954     241.004
  H      170.417    -255.203     240.335
  H      171.939    -255.099     239.483

 6  7  8  9  10  11  12  13  14  15  25  28  32  33  34  35 0
 6-311+G(2d,p)
 ****
 36  39  40 0
 6-311+G(2d,p)
 ****
 1  2  3  4  5  16  17  18  19  20  21  22  23  24 0
 3-21G
 ****
 26  27  29  30  31  37  38  41  42  43  44  45  46  47  48 0
 3-21G
 ****


