%nproc=1
%NoSave
%Mem=1900MB
#P OB98/GEN NMR

erre ene a

0 1
  C      179.619     124.269    -301.683
  O      178.949     125.485    -301.395
  P      178.175     126.297    -302.546
  C      175.875     125.459    -301.714
  O      176.718     126.583    -301.944
  C      174.965     125.729    -300.518
  O      175.761     125.827    -299.320
  C      174.179     127.032    -300.602
  O      173.080     126.906    -301.492
  C      173.817     127.242    -299.137
  O      172.694     126.422    -298.778
  C      175.086     126.739    -298.420
  N      175.970     127.821    -298.007
  C      175.473     128.696    -297.038
  O      174.346     128.547    -296.563
  N      176.277     129.718    -296.599
  C      177.467     129.866    -297.096
  N      178.246     130.853    -296.573
  C      178.010     128.999    -298.154
  C      177.219     128.005    -298.555
  O      178.176     125.639    -303.885
  O      178.845     127.746    -302.537
  H      171.951     126.688    -299.358
  H      179.635     127.818    -303.123
  H      179.003     129.169    -298.547
  H      177.552     127.309    -299.317
  H      174.811     126.147    -297.538
  H      173.563     128.280    -298.897
  H      174.826     127.845    -300.943
  H      174.282     124.874    -300.409
  H      177.900     131.305    -295.733
  H      176.504     124.589    -301.500
  H      179.250     130.852    -296.691
  H      175.291     125.258    -302.618
  P      172.195     128.215    -301.761
  C      172.671     128.687    -304.263
  O      171.773     128.151    -303.312
  O      173.260     129.404    -301.684
  O      171.066     128.402    -300.802
  H      173.205     129.853    -300.817
  H      172.357     128.359    -305.256
  H      173.690     128.332    -304.084
  H      172.643     129.779    -304.233
  H      180.068     123.889    -300.789
  H      180.378     124.445    -302.416
  H      178.917     123.556    -302.061

 3  4  5  6  7  8  9  10  11  12  13  23  27  28  29  30  32 0
 6-311+G(2d,p)
 ****
 34  35 0
 6-311+G(2d,p)
 ****
 1  2  14  15  16  17  18  19  20  21  22  24  25  26 0
 3-21G
 ****
 31  33  36  37  38  39  40  41  42  43  44  45  46 0
 3-21G
 ****


