%nproc=1
%NoSave
%Mem=1900MB
#P OB98/GEN NMR

erre ene a

0 1
  C     -423.983    -899.421     587.535
  O     -424.063    -898.131     586.945
  P     -422.716    -897.251     586.974
  C     -422.736    -897.161     584.376
  O     -422.637    -896.431     585.585
  C     -423.375    -896.301     583.284
  O     -424.792    -896.121     583.494
  C     -422.770    -894.911     583.160
  O     -421.554    -894.961     582.452
  C     -423.872    -894.151     582.425
  O     -423.772    -894.361     581.005
  C     -425.153    -894.811     582.975
  N     -427.215    -890.341     584.195
  C     -426.474    -890.701     583.077
  N     -426.260    -889.721     582.162
  N     -425.976    -891.901     582.901
  C     -426.252    -892.751     583.915
  C     -427.001    -892.531     585.034
  C     -427.553    -891.181     585.223
  O     -428.241    -890.821     586.170
  N     -427.130    -893.651     585.794
  C     -426.351    -894.531     585.189
  N     -425.851    -894.061     584.003
  O     -421.555    -898.351     586.849
  O     -422.567    -896.411     588.215
  H     -422.933    -894.011     580.680
  H     -421.082    -898.411     587.700
  H     -427.578    -889.401     584.283
  H     -426.140    -895.541     585.557
  H     -425.897    -894.981     582.171
  H     -423.804    -893.081     582.598
  H     -426.635    -888.781     582.214
  H     -422.634    -894.491     584.174
  H     -425.724    -889.981     581.339
  H     -423.252    -896.841     582.315
  H     -423.335    -898.061     584.537
  H     -421.735    -897.501     584.084
  P     -420.619    -893.661     582.462
  C     -418.571    -894.861     583.514
  O     -419.102    -894.161     582.427
  O     -420.799    -893.081     583.953
  O     -421.000    -892.641     581.432
  H     -420.916    -892.121     583.916
  H     -417.777    -895.541     583.171
  H     -419.357    -895.461     584.011
  H     -418.147    -894.171     584.242
  H     -424.932    -899.908     587.456
  H     -423.715    -899.325     588.567
  H     -423.241    -900.000     587.026

 3  4  5  6  7  8  9  10  11  12  23  26  30  31 0
 6-311+G(2d,p)
 ****
 33  35  36  37  38 0
 6-311+G(2d,p)
 ****
 1  2  13  14  15  16  17  18  19  20  21  22  24  25 0
 3-21G
 ****
 27  28  29  32  34  39  40  41  42  43  44  45  46  47  48  49 0
 3-21G
 ****


