%nproc=1
%NoSave
%Mem=1900MB
#P OB98/GEN NMR

erre ene a

0 1
  C      -81.023     -36.159     -24.071
  O      -81.219     -34.889     -24.657
  H      -80.789     -36.875     -24.864
  H      -81.933     -36.486     -23.564
  H      -80.191     -36.137     -23.363
  P      -81.413     -33.620     -23.698
  C      -83.775     -33.374     -24.699
  O      -82.991     -33.412     -23.513
  C      -85.069     -34.155     -24.492
  O      -84.775     -35.556     -24.300
  C      -85.852     -33.731     -23.256
  O      -86.525     -32.505     -23.461
  C      -86.753     -34.938     -23.062
  O      -87.898     -34.872     -23.921
  C      -85.828     -36.104     -23.475
  N      -85.279     -36.806     -22.316
  C      -86.118     -37.733     -21.707
  O      -87.256     -37.981     -22.099
  N      -85.623     -38.331     -20.578
  C      -84.463     -37.993     -19.944
  O      -84.180     -38.374     -18.813
  C      -83.591     -37.055     -20.665
  C      -84.037     -36.503     -21.795
  O      -80.652     -32.396     -24.085
  O      -80.954     -34.162     -22.262
  H      -80.054     -33.838     -22.070
  H      -88.474     -34.174     -23.545
  H      -86.243     -38.974     -20.106
  H      -82.629     -36.816     -20.230
  H      -83.427     -35.781     -22.329
  H      -86.374     -36.825     -24.095
  H      -87.112     -35.010     -22.034
  H      -85.175     -33.653     -22.398
  H      -85.682     -34.055     -25.396
  H      -83.201     -33.829     -25.514
  H      -83.986     -32.330     -24.953
  P      -85.959     -31.155     -22.812
  C      -88.087     -30.399     -21.586
  O      -86.755     -30.881     -21.448
  O      -85.883     -29.987     -23.737
  O      -84.498     -31.558     -22.291
  H      -83.856     -30.898     -22.614
  H      -88.516     -30.254     -20.617
  H      -88.670     -31.112     -22.131
  H      -88.077     -29.469     -22.115

 6  7  8  9  10  11  12  13  14  15  16  27  31  32  33  34  35 0
 6-311+G(2d,p)
 ****
 36  37 0
 6-311+G(2d,p)
 ****
 1  2  3  4  5  17  18  19  20  21  22  23  24  25 0
 3-21G
 ****
 26  28  29  30  38  39  40  41  42  43  44  45 0
 3-21G
 ****


