%nproc=1
%NoSave
%Mem=1900MB
#P OB98/GEN NMR

erre ene a

0 1
  C       87.008     135.519      10.012
  O       87.327     134.261      10.566
  H       86.334     135.369       9.166
  H       87.918     136.006       9.651
  H       86.511     136.160      10.745
  P       88.062     134.203      11.988
  C       90.490     134.458      12.819
  O       89.635     134.330      11.692
  C       91.834     135.071      12.414
  O       92.570     134.103      11.613
  C       91.710     136.356      11.581
  O       92.849     137.172      11.880
  C       91.804     135.817      10.168
  O       92.109     136.837       9.244
  C       92.863     134.726      10.347
  N       92.867     133.765       9.246
  C       94.110     133.368       8.773
  O       95.172     133.810       9.213
  N       94.104     132.474       7.738
  C       92.993     131.997       7.105
  O       93.046     131.221       6.160
  C       91.704     132.485       7.620
  C       91.699     133.331       8.654
  O       87.684     133.059      12.867
  O       87.722     135.614      12.665
  H       92.180     136.465       8.339
  H       87.690     135.520      13.637
  H       94.998     132.169       7.390
  H       90.805     132.134       7.134
  H       90.765     133.708       9.056
  H       93.866     135.168      10.414
  H       90.850     135.375       9.860
  H       90.785     136.904      11.772
  H       92.426     135.245      13.321
  H       90.649     133.459      13.238
  H       90.008     135.088      13.573
  P       92.811     138.311      13.010
  C       91.935     140.733      13.038
  O       91.697     139.394      12.612
  O       94.146     138.898      13.335
  O       92.183     137.588      14.294
  H       92.511     138.018      15.106
  H       91.129     141.358      12.716
  H       92.852     141.085      12.613
  H       92.003     140.761      14.105

 6  7  8  9  10  11  12  13  14  15  16  26  31  32  33  34  35 0
 6-311+G(2d,p)
 ****
 36  37 0
 6-311+G(2d,p)
 ****
 1  2  3  4  5  17  18  19  20  21  22  23  24  25 0
 3-21G
 ****
 27  28  29  30  38  39  40  41  42  43  44  45 0
 3-21G
 ****


