%nproc=1
%NoSave
%Mem=1900MB
#P OB98/GEN NMR

erre ene a

0 1
  C     -939.631    -892.324    -588.318
  O     -939.891    -893.631    -587.849
  H     -940.350    -892.085    -589.103
  H     -938.619    -892.252    -588.727
  H     -939.756    -891.598    -587.501
  P     -938.896    -894.263    -586.759
  C     -940.568    -894.680    -584.837
  O     -939.494    -893.885    -585.323
  C     -941.849    -893.838    -584.725
  O     -942.137    -893.247    -586.023
  C     -943.097    -894.663    -584.304
  O     -943.954    -893.779    -583.588
  C     -943.688    -895.011    -585.659
  O     -945.006    -895.480    -585.538
  C     -943.475    -893.683    -586.404
  N     -943.599    -893.834    -587.845
  C     -944.896    -893.751    -588.361
  O     -945.847    -893.562    -587.596
  N     -945.082    -893.888    -589.712
  C     -944.060    -894.171    -590.475
  N     -944.325    -894.322    -591.810
  C     -942.682    -894.339    -589.971
  C     -942.525    -894.151    -588.651
  O     -937.450    -893.948    -586.942
  O     -939.165    -895.837    -586.868
  H     -945.355    -895.770    -586.415
  H     -938.422    -896.272    -587.339
  H     -941.886    -894.587    -590.635
  H     -941.552    -894.259    -588.181
  H     -944.184    -892.928    -586.066
  H     -943.107    -895.813    -586.139
  H     -942.843    -895.532    -583.696
  H     -941.674    -893.012    -584.023
  H     -945.271    -894.213    -592.109
  H     -940.275    -895.058    -583.844
  H     -943.611    -894.557    -592.487
  H     -940.744    -895.531    -585.505
  P     -943.843    -893.555    -582.000
  C     -943.783    -890.991    -581.713
  O     -943.026    -892.207    -581.718
  O     -943.336    -894.739    -581.254
  O     -945.334    -893.205    -581.526
  H     -945.465    -893.505    -580.609
  H     -943.131    -890.166    -581.515
  H     -944.535    -891.042    -580.953
  H     -944.249    -890.857    -582.667

 6  7  8  9  10  11  12  13  14  15  16  26  30  31  32  33  35 0
 6-311+G(2d,p)
 ****
 37  38 0
 6-311+G(2d,p)
 ****
 1  2  3  4  5  17  18  19  20  21  22  23  24  25 0
 3-21G
 ****
 27  28  29  34  36  39  40  41  42  43  44  45  46 0
 3-21G
 ****


