%nproc=1
%NoSave
%Mem=1900MB
#P OB98/GEN NMR

erre ene a

0 1
  C     -681.264    -163.941     464.372
  O     -681.984    -165.028     464.994
  P     -683.421    -165.396     464.389
  C     -684.226    -165.889     466.831
  O     -684.119    -166.325     465.490
  C     -684.935    -166.960     467.675
  O     -686.266    -167.205     467.171
  C     -684.244    -168.304     467.675
  O     -683.076    -168.301     468.482
  C     -685.362    -169.207     468.182
  O     -685.463    -169.118     469.617
  C     -686.616    -168.561     467.533
  N     -687.104    -169.310     466.384
  C     -688.436    -169.705     466.443
  O     -689.168    -169.468     467.406
  N     -688.901    -170.390     465.349
  C     -688.185    -170.752     464.250
  O     -688.648    -171.359     463.310
  C     -686.760    -170.355     464.276
  C     -686.296    -169.658     465.318
  O     -683.010    -166.393     463.209
  O     -684.200    -164.205     463.958
  H     -682.241    -166.949     463.428
  H     -684.664    -169.563     469.979
  H     -689.877    -170.672     465.369
  H     -686.150    -170.644     463.432
  H     -685.247    -169.357     465.349
  H     -687.423    -168.481     468.264
  H     -685.210    -170.254     467.925
  H     -683.980    -168.587     466.645
  H     -685.012    -166.569     468.703
  H     -684.797    -164.958     466.880
  H     -683.223    -165.682     467.209
  P     -681.689    -168.680     467.762
  C     -679.912    -169.859     469.288
  O     -680.567    -168.656     468.896
  O     -681.399    -167.345     466.921
  O     -681.755    -169.925     466.942
  H     -681.570    -166.528     467.425
  H     -678.980    -169.602     469.788
  H     -679.704    -170.486     468.425
  H     -680.550    -170.403     469.992
  H     -680.327    -163.802     464.870
  H     -681.842    -163.043     464.443
  H     -681.089    -164.172     463.342

 3  4  5  6  7  8  9  10  11  12  13  24  28  29  30  31  32 0
 6-311+G(2d,p)
 ****
 33  34 0
 6-311+G(2d,p)
 ****
 1  2  14  15  16  17  18  19  20  21  22  23  25  26  27 0
 3-21G
 ****
 35  36  37  38  39  40  41  42  43  44  45 0
 3-21G
 ****


