%nproc=1
%NoSave
%Mem=1900MB
#P OB98/GEN NMR

erre ene a

0 1
  C      -99.357    -730.474      68.261
  O     -100.466    -730.008      68.999
  H      -99.206    -729.815      67.403
  H      -99.546    -731.493      67.891
  H      -98.455    -730.464      68.887
  P     -100.771    -730.734      70.399
  C     -102.639    -728.916      70.759
  O     -102.232    -730.280      70.866
  C     -104.077    -728.757      71.239
  O     -105.005    -729.422      70.348
  C     -104.352    -729.397      72.589
  O     -103.747    -728.694      73.667
  C     -105.880    -729.359      72.604
  O     -106.367    -728.058      72.954
  C     -106.201    -729.704      71.132
  N     -106.639    -731.079      70.966
  C     -107.474    -731.334      69.859
  O     -107.784    -730.428      69.101
  N     -107.954    -732.612      69.683
  C     -107.606    -733.549      70.490
  N     -108.126    -734.793      70.255
  C     -106.707    -733.344      71.647
  C     -106.279    -732.091      71.825
  O      -99.815    -729.937      71.415
  O     -100.576    -732.214      70.400
  H     -106.280    -727.978      73.924
  H      -99.936    -728.969      71.385
  H     -106.444    -734.176      72.294
  H     -105.619    -731.856      72.649
  H     -106.995    -729.038      70.753
  H     -106.295    -730.060      73.340
  H     -104.030    -730.445      72.591
  H     -104.320    -727.682      71.250
  H     -108.755    -734.901      69.449
  H     -102.534    -728.564      69.726
  H     -107.952    -735.605      70.832
  H     -101.956    -728.318      71.388
  P     -102.775    -729.454      74.692
  C     -100.844    -727.753      74.620
  O     -101.896    -728.294      75.386
  O     -101.980    -730.562      74.107
  O     -103.763    -729.897      75.877
  H     -104.221    -729.153      76.321
  H     -100.341    -726.998      75.188
  H     -101.240    -727.321      73.725
  H     -100.152    -728.529      74.366

 6  7  8  9  10  11  12  13  14  15  16  26  30  31  32  33  35 0
 6-311+G(2d,p)
 ****
 37  38 0
 6-311+G(2d,p)
 ****
 1  2  3  4  5  17  18  19  20  21  22  23  24  25 0
 3-21G
 ****
 27  28  29  34  36  39  40  41  42  43  44  45  46 0
 3-21G
 ****


