%nproc=1
%NoSave
%Mem=1900MB
#P OB98/GEN NMR

erre ene a

0 1
  C     -205.305      56.309    -221.323
  O     -205.258      56.655    -222.694
  P     -205.942      55.703    -223.785
  C     -208.041      56.948    -224.687
  O     -207.512      56.021    -223.765
  C     -209.570      56.842    -224.766
  O     -209.894      55.588    -225.415
  C     -210.280      56.808    -223.417
  O     -211.658      57.128    -223.620
  C     -210.148      55.352    -223.032
  O     -211.102      54.965    -222.047
  C     -210.274      54.631    -224.398
  N     -209.407      53.442    -224.465
  C     -209.917      52.261    -223.935
  O     -211.062      52.164    -223.496
  N     -209.037      51.216    -223.847
  C     -207.719      51.266    -224.188
  O     -206.887      50.443    -223.824
  C     -207.306      52.450    -224.957
  C     -208.149      53.482    -225.037
  O     -205.837      54.257    -223.109
  O     -205.307      55.734    -225.132
  H     -210.940      54.014    -221.852
  H     -205.055      53.783    -223.448
  H     -209.365      50.409    -223.330
  H     -206.310      52.464    -225.378
  H     -207.853      54.390    -225.554
  H     -211.305      54.309    -224.586
  H     -209.150      55.182    -222.609
  H     -209.844      57.471    -222.663
  H     -209.959      57.655    -225.388
  H     -207.592      56.776    -225.670
  H     -207.770      57.969    -224.397
  P     -212.502      57.644    -222.359
  C     -212.697      60.038    -223.268
  O     -212.204      59.215    -222.230
  O     -212.349      56.855    -221.103
  O     -214.013      57.615    -222.899
  H     -214.631      57.621    -222.147
  H     -212.906      61.030    -222.861
  H     -213.615      59.631    -223.701
  H     -211.936      60.126    -224.048
  H     -204.800      57.057    -220.749
  H     -204.826      55.363    -221.177
  H     -206.325      56.245    -221.006

 3  4  5  6  7  8  9  10  11  12  13  23  28  29  30  31  32 0
 6-311+G(2d,p)
 ****
 33  34 0
 6-311+G(2d,p)
 ****
 1  2  14  15  16  17  18  19  20  21  22  24  25  26  27 0
 3-21G
 ****
 35  36  37  38  39  40  41  42  43  44  45 0
 3-21G
 ****


