%nproc=1
%NoSave
%Mem=1900MB
#P OB98/GEN NMR

erre ene a

0 1
  C     -229.953      83.091      28.373
  O     -230.689      81.961      27.955
  P     -230.352      80.471      28.423
  C     -231.752      79.637      26.397
  O     -230.563      79.488      27.168
  C     -231.610      79.099      24.965
  O     -230.488      79.738      24.320
  C     -231.298      77.599      24.993
  O     -232.343      76.655      25.123
  C     -230.367      77.367      23.809
  O     -231.054      76.864      22.662
  C     -229.796      78.758      23.526
  N     -225.237      76.584      23.081
  C     -226.415      76.280      22.427
  N     -226.412      75.132      21.712
  N     -227.492      77.016      22.492
  C     -227.369      78.079      23.322
  C     -226.254      78.491      24.014
  C     -225.055      77.689      23.900
  O     -224.019      77.880      24.532
  N     -226.519      79.571      24.816
  C     -227.808      79.789      24.645
  N     -228.373      78.885      23.779
  O     -230.878      80.051      29.758
  O     -228.743      80.533      28.538
  H     -231.748      77.506      22.423
  H     -228.477      79.950      29.277
  H     -224.461      75.934      23.057
  H     -228.380      80.562      25.147
  H     -229.960      79.036      22.477
  H     -229.599      76.625      24.061
  H     -225.649      74.467      21.756
  H     -230.673      77.425      25.879
  H     -227.300      74.789      21.359
  H     -232.485      79.354      24.359
  H     -232.004      80.702      26.388
  H     -232.576      79.117      26.896
  P     -232.420      75.466      26.188
  C     -234.894      75.242      25.579
  O     -233.686      74.550      25.835
  O     -232.868      76.181      27.553
  O     -231.140      74.717      26.395
  H     -232.609      75.631      28.314
  H     -235.730      74.541      25.651
  H     -234.869      75.661      24.565
  H     -235.043      76.050      26.300
  H     -230.368      83.971      27.928
  H     -228.933      82.985      28.069
  H     -230.001      83.173      29.439

 3  4  5  6  7  8  9  10  11  12  23  26  30  31 0
 6-311+G(2d,p)
 ****
 33  35  36  37  38 0
 6-311+G(2d,p)
 ****
 1  2  13  14  15  16  17  18  19  20  21  22  24  25 0
 3-21G
 ****
 27  28  29  32  34  39  40  41  42  43  44  45  46  47  48  49 0
 3-21G
 ****


