%nproc=1
%NoSave
%Mem=1900MB
#P OB98/GEN NMR

erre ene a

0 1
  C       -7.740      93.778      49.503
  O       -7.815      93.838      48.094
  H       -8.564      94.361      49.924
  H       -6.797      94.196      49.864
  H       -7.840      92.742      49.841
  P       -6.572      93.276      47.247
  C       -4.018      93.581      47.487
  O       -5.306      94.152      47.710
  C       -2.918      94.458      48.089
  O       -3.089      94.561      49.517
  C       -1.516      93.903      47.895
  O       -1.062      93.933      46.558
  C       -0.724      94.628      48.975
  O       -0.245      95.904      48.566
  C       -1.785      94.799      50.088
  N       -1.526      93.934      51.231
  C       -0.627      94.425      52.171
  O       -0.051      95.510      52.060
  N       -0.367      93.607      53.235
  C       -0.872      92.352      53.418
  O       -0.568      91.650      54.374
  C       -1.797      91.875      52.377
  C       -2.079      92.676      51.347
  O       -6.764      93.229      45.761
  O       -6.281      91.846      47.903
  H        0.231      95.776      47.723
  H       -5.720      91.291      47.310
  H        0.274      93.951      53.931
  H       -2.214      90.884      52.489
  H       -2.758      92.345      50.565
  H       -1.792      95.837      50.447
  H        0.146      94.047      49.290
  H       -1.528      92.845      48.184
  H       -3.007      95.465      47.664
  H       -3.869      93.509      46.407
  H       -3.983      92.574      47.919
  P       -0.013      92.886      45.966
  C        2.378      92.131      46.649
  O        1.424      93.186      46.626
  O       -0.083      92.620      44.496
  O       -0.456      91.530      46.722
  H       -0.303      90.788      46.106
  H        3.278      92.474      47.114
  H        2.590      91.820      45.647
  H        1.983      91.305      47.203

 6  7  8  9  10  11  12  13  14  15  16  26  31  32  33  34  35 0
 6-311+G(2d,p)
 ****
 36  37 0
 6-311+G(2d,p)
 ****
 1  2  3  4  5  17  18  19  20  21  22  23  24  25 0
 3-21G
 ****
 27  28  29  30  38  39  40  41  42  43  44  45 0
 3-21G
 ****


