%nproc=1
%NoSave
%Mem=1900MB
#P OB98/GEN NMR

erre ene a

0 1
  C     -637.552     760.726    -396.466
  O     -638.027     762.056    -396.432
  P     -637.370     763.096    -397.459
  C     -638.071     762.200    -399.810
  O     -638.308     763.143    -398.755
  C     -639.148     762.342    -400.883
  O     -640.370     761.726    -400.437
  C     -639.524     763.782    -401.229
  O     -638.522     764.386    -402.039
  C     -640.858     763.568    -401.923
  O     -640.648     763.118    -403.277
  C     -641.480     762.424    -401.085
  N     -645.912     761.588    -398.664
  C     -645.293     760.933    -399.675
  N     -644.124     761.232    -400.273
  C     -643.584     762.336    -399.739
  C     -644.098     763.110    -398.722
  C     -645.327     762.707    -398.169
  N     -645.957     763.373    -397.149
  N     -643.266     764.181    -398.449
  C     -642.259     764.030    -399.275
  N     -642.383     762.917    -400.069
  O     -636.063     762.330    -397.978
  O     -637.035     764.437    -396.872
  H     -641.528     762.885    -403.646
  H     -635.334     762.954    -398.146
  H     -645.813     760.044    -400.041
  H     -641.401     764.696    -399.347
  H     -642.021     761.706    -401.694
  H     -641.474     764.466    -401.959
  H     -639.663     764.375    -400.318
  H     -638.796     761.812    -401.781
  H     -638.109     761.188    -399.390
  H     -646.897     763.109    -396.907
  H     -645.589     764.283    -396.871
  H     -637.072     762.380    -400.221
  P     -638.468     765.989    -402.078
  C     -636.095     766.397    -401.193
  O     -636.920     766.328    -402.339
  O     -638.654     766.352    -400.525
  O     -639.437     766.627    -403.015
  H     -638.060     765.842    -399.964
  H     -635.082     766.575    -401.505
  H     -636.146     765.457    -400.633
  H     -636.417     767.232    -400.548
  H     -638.072     760.143    -395.735
  H     -636.504     760.716    -396.251
  H     -637.720     760.312    -397.438

 3  4  5  6  7  8  9  10  11  12  22  25  29  30  31  32 0
 6-311+G(2d,p)
 ****
 33  36  37 0
 6-311+G(2d,p)
 ****
 1  2  13  14  15  16  17  18  19  20  21  23  24  26 0
 3-21G
 ****
 27  28  34  35  38  39  40  41  42  43  44  45  46  47  48 0
 3-21G
 ****


