%nproc=1
%NoSave
%Mem=1900MB
#P OB98/GEN NMR

erre ene a

0 1
  C     -276.196     -88.602    -672.853
  O     -276.034     -89.541    -673.901
  P     -274.719     -90.463    -673.883
  C     -275.658     -92.050    -672.044
  O     -274.648     -91.118    -672.420
  C     -275.039     -93.213    -671.275
  O     -274.204     -94.012    -672.137
  C     -274.138     -92.790    -670.121
  O     -274.875     -92.456    -668.955
  C     -273.336     -94.061    -669.896
  O     -274.112     -94.999    -669.122
  C     -273.145     -94.580    -671.329
  N     -268.355     -96.067    -672.007
  C     -269.449     -96.782    -671.557
  N     -269.218     -98.060    -671.183
  N     -270.659     -96.292    -671.487
  C     -270.736     -94.999    -671.888
  C     -269.727     -94.188    -672.354
  C     -268.393     -94.741    -672.413
  O     -267.373     -94.140    -672.750
  N     -270.193     -92.942    -672.669
  C     -271.484     -92.992    -672.400
  N     -271.856     -94.208    -671.882
  O     -273.524     -89.398    -673.868
  O     -274.607     -91.415    -675.026
  H     -274.192     -94.623    -668.224
  H     -272.688     -89.828    -674.124
  H     -267.443     -96.486    -672.036
  H     -272.180     -92.180    -672.548
  H     -273.237     -95.667    -671.386
  H     -272.407     -93.888    -669.344
  H     -268.297     -98.476    -671.154
  H     -273.462     -91.981    -670.424
  H     -269.988     -98.586    -670.793
  H     -275.855     -93.850    -670.910
  H     -276.149     -92.424    -672.944
  H     -276.405     -91.538    -671.429
  P     -274.298     -91.253    -668.060
  C     -274.812     -89.211    -669.584
  O     -273.844     -90.123    -669.104
  O     -272.917     -91.845    -667.508
  O     -275.206     -90.816    -666.962
  H     -272.677     -91.418    -666.662
  H     -274.297     -88.371    -670.057
  H     -275.435     -88.830    -668.769
  H     -275.443     -89.705    -670.332
  H     -277.109     -88.063    -672.995
  H     -275.374     -87.917    -672.857
  H     -276.227     -89.116    -671.915

 3  4  5  6  7  8  9  10  11  12  23  26  30  31 0
 6-311+G(2d,p)
 ****
 33  35  36  37  38 0
 6-311+G(2d,p)
 ****
 1  2  13  14  15  16  17  18  19  20  21  22  24  25 0
 3-21G
 ****
 27  28  29  32  34  39  40  41  42  43  44  45  46  47  48  49 0
 3-21G
 ****


