%nproc=1
%NoSave
%Mem=1900MB
#P OB98/GEN NMR

erre ene a

0 1
  C       28.159     -62.968     211.510
  O       27.781     -63.731     210.361
  P       26.231     -64.038     210.098
  C       26.021     -66.351     211.235
  O       25.677     -64.971     211.284
  C       24.771     -67.235     211.432
  O       24.182     -66.975     212.733
  C       23.690     -66.987     210.365
  O       23.233     -68.195     209.740
  C       22.638     -66.179     211.106
  O       21.346     -66.284     210.521
  C       22.785     -66.680     212.550
  N       22.287     -65.694     213.523
  C       21.106     -66.014     214.185
  O       20.441     -67.022     213.927
  N       20.670     -65.093     215.109
  C       21.249     -63.893     215.372
  O       20.798     -63.080     216.177
  C       22.465     -63.581     214.595
  C       22.920     -64.488     213.722
  O       25.886     -64.505     208.720
  O       25.528     -62.628     210.417
  H       21.095     -67.233     210.493
  H       24.804     -62.502     209.765
  H       19.823     -65.316     215.603
  H       22.941     -62.621     214.764
  H       23.807     -64.281     213.132
  H       22.212     -67.603     212.704
  H       22.923     -65.117     211.071
  H       24.078     -66.391     209.527
  H       25.110     -68.278     211.402
  H       26.736     -66.577     212.026
  H       26.520     -66.570     210.289
  P       23.469     -68.569     208.208
  C       21.064     -68.044     207.374
  O       22.444     -67.720     207.312
  O       23.513     -70.027     207.888
  O       24.888     -67.889     207.884
  H       25.408     -68.493     207.318
  H       20.574     -67.658     206.469
  H       20.612     -67.580     208.253
  H       20.910     -69.134     207.417
  H       29.223     -62.858     211.531
  H       27.835     -63.473     212.396
  H       27.702     -62.002     211.463

 3  4  5  6  7  8  9  10  11  12  13  23  28  29  30  31  32 0
 6-311+G(2d,p)
 ****
 33  34 0
 6-311+G(2d,p)
 ****
 1  2  14  15  16  17  18  19  20  21  22  24  25  26  27 0
 3-21G
 ****
 35  36  37  38  39  40  41  42  43  44  45 0
 3-21G
 ****


