%nproc=1
%NoSave
%Mem=1900MB
#P OB98/GEN NMR

erre ene a

0 1
  C      -30.377      11.919      76.808
  O      -30.166      13.017      75.943
  H      -30.827      12.284      77.734
  H      -29.419      11.449      77.045
  H      -31.050      11.188      76.353
  P      -29.823      12.676      74.412
  C      -31.220      11.667      72.472
  O      -31.016      11.746      73.874
  C      -32.086      10.458      72.131
  O      -31.390       9.234      72.452
  C      -33.414      10.406      72.878
  O      -34.404      11.203      72.241
  C      -33.746       8.928      72.759
  O      -34.245       8.646      71.434
  C      -32.369       8.277      72.947
  N      -32.364       4.609      76.449
  C      -32.842       4.596      75.153
  N      -33.407       3.443      74.734
  N      -32.779       5.619      74.342
  C      -32.210       6.712      74.904
  C      -31.706       6.849      76.178
  C      -31.768       5.706      77.058
  O      -31.349       5.663      78.212
  N      -31.209       8.108      76.390
  C      -31.432       8.738      75.254
  N      -32.041       7.935      74.321
  O      -28.584      11.667      74.545
  O      -29.478      13.850      73.561
  H      -33.517       8.823      70.811
  H      -27.761      12.152      74.346
  H      -32.448       3.797      77.035
  H      -31.168       9.767      75.053
  H      -32.258       7.360      72.357
  H      -34.518       8.611      73.462
  H      -33.508       2.625      75.313
  H      -33.297      10.673      73.935
  H      -33.761       3.410      73.786
  H      -32.253      10.462      71.045
  H      -30.249      11.572      71.975
  H      -31.710      12.585      72.131
  P      -35.631      11.738      73.124
  C      -35.838      13.654      74.858
  O      -35.007      12.655      74.286
  O      -36.104      10.421      73.900
  O      -36.751      12.347      72.354
  H      -36.983      10.141      73.576
  H      -35.293      14.182      75.612
  H      -36.699      13.194      75.296
  H      -36.148      14.339      74.097

 6  7  8  9  10  11  12  13  14  15  26  29  33  34 0
 6-311+G(2d,p)
 ****
 36  38  39  40  41 0
 6-311+G(2d,p)
 ****
 1  2  3  4  5  16  17  18  19  20  21  22  23  24  25 0
 3-21G
 ****
 27  28  30  31  32  35  37  42  43  44  45  46  47 0
 3-21G
 ****
 48  49 0
 3-21G
 ****


