%nproc=1
%NoSave
%Mem=1900MB
#P OB98/GEN NMR

erre ene a

0 1
  C       91.676    -372.073    -148.927
  O       92.606    -372.789    -148.121
  P       94.136    -372.819    -148.597
  C       93.965    -374.638    -150.477
  O       94.166    -373.281    -150.133
  C       94.217    -374.870    -151.980
  O       93.841    -376.238    -152.302
  C       93.396    -373.992    -152.922
  O       94.015    -373.997    -154.214
  C       92.084    -374.747    -152.986
  O       91.305    -374.355    -154.113
  C       92.555    -376.222    -152.975
  N       91.615    -377.137    -152.289
  C       90.444    -377.504    -152.954
  O       90.145    -377.121    -154.081
  N       89.594    -378.327    -152.263
  C       89.807    -378.834    -151.018
  O       88.969    -379.491    -150.407
  C       91.113    -378.526    -150.418
  C       91.938    -377.702    -151.063
  O       94.756    -374.058    -147.799
  O       94.874    -371.547    -148.323
  H       90.493    -374.915    -154.103
  H       95.321    -373.741    -147.067
  H       88.713    -378.547    -152.703
  H       91.345    -378.969    -149.459
  H       92.899    -377.442    -150.628
  H       92.689    -376.602    -153.998
  H       91.491    -374.538    -152.095
  H       93.256    -372.962    -152.580
  H       95.287    -374.761    -152.187
  H       92.950    -374.945    -150.210
  H       94.647    -375.271    -149.896
  P       95.081    -372.842    -154.542
  C       93.529    -371.627    -156.193
  O       94.229    -371.549    -154.965
  O       96.186    -373.222    -155.467
  O       95.628    -372.438    -153.088
  H       96.476    -371.971    -153.176
  H       92.638    -370.993    -156.129
  H       93.213    -372.654    -156.411
  H       94.166    -371.261    -156.999
  H       90.701    -372.139    -148.491
  H       91.656    -372.496    -149.910
  H       91.972    -371.046    -148.986

 3  4  5  6  7  8  9  10  11  12  13  23  28  29  30  31  32 0
 6-311+G(2d,p)
 ****
 33  34 0
 6-311+G(2d,p)
 ****
 1  2  14  15  16  17  18  19  20  21  22  24  25  26  27 0
 3-21G
 ****
 35  36  37  38  39  40  41  42  43  44  45 0
 3-21G
 ****


