%nproc=1
%NoSave
%Mem=1900MB
#P OB98/GEN NMR

erre ene a

0 1
  C      -59.714     269.496     255.764
  O      -58.779     270.557     255.763
  H      -59.832     269.093     256.773
  H      -60.679     269.881     255.422
  H      -59.385     268.706     255.081
  P      -57.320     270.218     256.338
  C      -57.956     271.561     258.461
  O      -56.995     271.338     257.441
  C      -57.263     271.805     259.795
  O      -56.422     270.683     260.135
  C      -56.343     273.020     259.822
  O      -57.068     274.233     259.971
  C      -55.505     272.713     261.056
  O      -56.236     273.079     262.242
  C      -55.353     271.187     260.983
  N      -50.476     269.997     262.066
  C      -51.502     270.401     262.849
  N      -52.766     270.710     262.495
  C      -52.940     270.552     261.172
  C      -51.991     270.149     260.246
  C      -50.705     269.870     260.739
  N      -49.662     269.475     259.928
  N      -52.536     270.088     258.983
  C      -53.793     270.448     259.137
  N      -54.084     270.747     260.443
  O      -56.342     270.598     255.127
  O      -57.119     268.806     256.780
  H      -56.818     273.822     261.993
  H      -55.596     269.970     255.111
  H      -51.276     270.484     263.911
  H      -54.524     270.505     258.340
  H      -55.486     270.720     261.967
  H      -54.557     273.253     261.079
  H      -55.692     273.045     258.939
  H      -58.037     271.889     260.569
  H      -58.606     270.682     258.553
  H      -48.833     269.102     260.355
  H      -49.844     269.374     258.933
  H      -58.570     272.425     258.186
  P      -56.780     275.401     258.903
  C      -56.438     277.524     260.362
  O      -57.339     276.747     259.581
  O      -57.841     275.100     257.745
  O      -55.388     275.454     258.381
  H      -57.520     275.468     256.898
  H      -56.948     278.383     260.746
  H      -55.618     277.839     259.752
  H      -56.071     276.934     261.176

 6  7  8  9  10  11  12  13  14  15  25  28  32  33  34  35 0
 6-311+G(2d,p)
 ****
 36  39  40 0
 6-311+G(2d,p)
 ****
 1  2  3  4  5  16  17  18  19  20  21  22  23  24 0
 3-21G
 ****
 26  27  29  30  31  37  38  41  42  43  44  45  46  47  48 0
 3-21G
 ****


