%nproc=1
%NoSave
%Mem=1900MB
#P OB98/GEN NMR

erre ene a

0 1
  C      -36.872     246.970    -250.743
  O      -36.656     246.762    -249.366
  H      -37.889     246.652    -250.987
  H      -36.175     246.369    -251.333
  H      -36.765     248.026    -250.996
  P      -35.221     247.103    -248.732
  C      -35.547     249.579    -248.140
  O      -35.502     248.250    -247.637
  C      -36.137     250.537    -247.105
  O      -37.542     250.232    -246.902
  C      -35.447     250.470    -245.734
  O      -35.169     251.790    -245.264
  C      -36.494     249.820    -244.838
  O      -36.323     250.137    -243.460
  C      -37.784     250.334    -245.487
  N      -38.952     249.571    -245.063
  C      -39.974     250.300    -244.446
  O      -39.862     251.519    -244.295
  N      -41.070     249.629    -243.969
  C      -41.120     248.336    -244.057
  N      -42.221     247.731    -243.539
  C      -40.050     247.523    -244.674
  C      -39.007     248.199    -245.155
  O      -34.161     247.428    -249.731
  O      -34.860     245.833    -247.826
  H      -37.129     249.859    -242.976
  H      -33.884     245.800    -247.697
  H      -40.138     246.450    -244.716
  H      -38.173     247.693    -245.625
  H      -37.950     251.391    -245.245
  H      -36.431     248.730    -244.945
  H      -34.521     249.894    -245.747
  H      -36.102     251.555    -247.515
  H      -42.927     248.326    -243.121
  H      -36.148     249.588    -249.057
  H      -42.361     246.731    -243.527
  H      -34.525     249.893    -248.378
  P      -33.633     252.119    -244.940
  C      -33.312     253.945    -246.757
  O      -33.347     253.639    -245.370
  O      -32.832     251.255    -246.022
  O      -33.228     251.764    -243.545
  H      -32.371     250.517    -245.580
  H      -33.113     254.988    -246.887
  H      -34.256     253.704    -247.199
  H      -32.541     253.373    -247.229

 6  7  8  9  10  11  12  13  14  15  16  26  30  31  32  33  35 0
 6-311+G(2d,p)
 ****
 37  38 0
 6-311+G(2d,p)
 ****
 1  2  3  4  5  17  18  19  20  21  22  23  24  25 0
 3-21G
 ****
 27  28  29  34  36  39  40  41  42  43  44  45  46 0
 3-21G
 ****


