%nproc=1
%NoSave
%Mem=1900MB
#P OB98/GEN NMR

erre ene a

0 1
  C      224.394     405.345    -660.139
  O      223.752     406.089    -661.157
  P      222.180     405.915    -661.463
  C      222.912     405.045    -663.787
  O      222.057     405.917    -663.065
  C      222.505     405.011    -665.266
  O      221.178     404.425    -665.365
  C      222.457     406.385    -665.944
  O      222.873     406.204    -667.305
  C      220.980     406.740    -665.872
  O      220.616     407.709    -666.850
  C      220.337     405.369    -666.068
  N      218.960     405.315    -665.584
  C      217.979     405.956    -666.345
  O      218.274     406.563    -667.369
  N      216.678     405.891    -665.916
  C      216.398     405.318    -664.790
  N      215.081     405.229    -664.446
  C      217.418     404.722    -663.905
  C      218.659     404.740    -664.376
  O      221.296     406.896    -660.771
  O      221.883     404.388    -661.102
  H      220.956     407.423    -667.718
  H      221.684     404.245    -660.144
  H      217.134     404.277    -662.959
  H      219.471     404.301    -663.799
  H      220.376     405.076    -667.135
  H      220.751     407.150    -664.887
  H      223.111     407.122    -665.460
  H      223.195     404.343    -665.801
  H      214.403     405.486    -665.151
  H      222.810     404.038    -663.371
  H      214.759     404.533    -663.770
  H      223.953     405.362    -663.677
  P      224.160     407.023    -667.819
  C      223.164     407.295    -670.194
  O      224.241     406.857    -669.416
  O      225.361     406.073    -667.317
  O      224.342     408.397    -667.269
  H      226.163     406.610    -667.197
  H      223.392     407.110    -671.245
  H      222.990     408.359    -670.061
  H      222.252     406.736    -669.938
  H      225.430     405.610    -660.103
  H      224.301     404.300    -660.348
  H      223.937     405.562    -659.196

 3  4  5  6  7  8  9  10  11  12  13  23  27  28  29  30  32 0
 6-311+G(2d,p)
 ****
 34  35 0
 6-311+G(2d,p)
 ****
 1  2  14  15  16  17  18  19  20  21  22  24  25  26 0
 3-21G
 ****
 31  33  36  37  38  39  40  41  42  43  44  45  46 0
 3-21G
 ****


