%nproc=1
%NoSave
%Mem=1900MB
#P OB98/GEN NMR

erre ene a

0 1
  C     2119.980     251.846    1314.592
  O     2118.879     251.640    1313.729
  H     2119.616     251.971    1315.625
  H     2120.502     252.776    1314.310
  H     2120.675     250.998    1314.550
  P     2119.192     251.549    1312.150
  C     2119.207     248.954    1312.360
  O     2119.889     250.122    1311.900
  C     2118.511     248.234    1311.176
  O     2119.504     248.144    1310.064
  C     2118.086     246.826    1311.456
  O     2116.859     246.760    1312.172
  C     2117.948     246.277    1310.024
  O     2116.666     246.616    1309.460
  C     2119.102     246.980    1309.273
  N     2120.219     246.092    1309.025
  C     2120.052     245.163    1308.023
  O     2118.971     245.073    1307.381
  N     2121.075     244.282    1307.854
  C     2122.243     244.266    1308.559
  O     2123.112     243.395    1308.363
  C     2122.389     245.260    1309.598
  C     2121.381     246.130    1309.825
  O     2120.408     252.575    1311.955
  O     2118.048     251.842    1311.260
  H     2120.072     253.403    1311.528
  H     2115.995     246.320    1310.123
  H     2120.966     243.604    1307.116
  H     2123.261     245.240    1310.202
  H     2121.468     246.883    1310.599
  H     2118.748     247.361    1308.312
  H     2118.053     245.207    1310.032
  H     2118.893     246.274    1311.979
  H     2117.685     248.882    1310.829
  H     2118.410     249.215    1313.095
  H     2119.904     248.277    1312.843
  P     2116.702     245.643    1313.305
  C     2117.199     247.314    1315.326
  O     2117.601     246.164    1314.577
  O     2117.579     244.461    1312.667
  O     2115.275     245.320    1313.623
  H     2118.281     244.776    1312.058
  H     2117.906     247.495    1316.108
  H     2116.232     247.143    1315.751
  H     2117.158     248.165    1314.679

 6  7  8  9  10  11  12  13  14  15  16  27  31  32  33  34  35 0
 6-311+G(2d,p)
 ****
 36  37 0
 6-311+G(2d,p)
 ****
 1  2  3  4  5  17  18  19  20  21  22  23  24  25 0
 3-21G
 ****
 26  28  29  30  38  39  40  41  42  43  44  45 0
 3-21G
 ****


