%nproc=1
%NoSave
%Mem=1900MB
#P OB98/GEN NMR

erre ene a

0 1
  C     -202.870    -600.520    -563.055
  O     -201.782    -601.282    -562.509
  P     -200.290    -600.739    -562.739
  C     -199.562    -603.104    -563.549
  O     -199.294    -601.992    -562.702
  C     -198.594    -604.255    -563.250
  O     -198.743    -604.722    -561.881
  C     -198.800    -605.476    -564.138
  O     -198.142    -605.320    -565.393
  C     -198.106    -606.551    -563.321
  O     -196.676    -606.476    -563.509
  C     -198.478    -606.153    -561.883
  N     -200.237    -610.633    -560.310
  C     -198.973    -610.279    -560.743
  N     -198.045    -611.254    -560.749
  N     -198.659    -609.064    -561.129
  C     -199.683    -608.188    -561.048
  C     -200.976    -608.430    -560.648
  C     -201.325    -609.765    -560.231
  O     -202.430    -610.150    -559.861
  N     -201.739    -607.287    -560.717
  C     -200.897    -606.354    -561.140
  N     -199.642    -606.863    -561.378
  O     -199.967    -599.993    -561.356
  O     -200.144    -599.822    -563.912
  H     -196.495    -606.798    -564.406
  H     -199.322    -599.277    -561.511
  H     -200.433    -611.578    -560.030
  H     -201.162    -605.317    -561.292
  H     -197.657    -606.340    -561.167
  H     -198.414    -607.559    -563.613
  H     -198.203    -612.189    -560.411
  H     -199.861    -605.704    -564.247
  H     -197.103    -610.995    -561.028
  H     -197.569    -603.874    -563.378
  H     -199.483    -602.814    -564.599
  H     -200.610    -603.406    -563.412
  P     -198.905    -605.829    -566.707
  C     -196.895    -606.521    -568.189
  O     -197.913    -605.581    -567.928
  O     -200.059    -604.733    -566.892
  O     -199.473    -607.214    -566.598
  H     -200.849    -605.145    -567.299
  H     -196.423    -606.275    -569.146
  H     -197.309    -607.534    -568.249
  H     -196.134    -606.480    -567.402
  H     -203.796    -601.003    -562.822
  H     -202.760    -600.452    -564.117
  H     -202.864    -599.537    -562.632

 3  4  5  6  7  8  9  10  11  12  23  26  30  31 0
 6-311+G(2d,p)
 ****
 33  35  36  37  38 0
 6-311+G(2d,p)
 ****
 1  2  13  14  15  16  17  18  19  20  21  22  24  25 0
 3-21G
 ****
 27  28  29  32  34  39  40  41  42  43  44  45  46  47  48  49 0
 3-21G
 ****


