%nproc=1
%NoSave
%Mem=1900MB
#P OB98/GEN NMR

erre ene a

0 1
  C      -50.459    -278.173     140.313
  O      -50.946    -277.035     140.992
  H      -49.367    -278.129     140.295
  H      -50.825    -278.176     139.284
  H      -50.761    -279.094     140.817
  P      -52.490    -276.988     141.417
  C      -52.800    -277.278     143.961
  O      -52.533    -276.374     142.899
  C      -53.905    -276.738     144.873
  O      -54.260    -277.768     145.839
  C      -53.503    -275.486     145.666
  O      -54.688    -274.703     145.864
  C      -53.043    -276.087     146.980
  O      -52.999    -275.121     148.005
  C      -54.067    -277.212     147.153
  N      -53.635    -278.219     148.121
  C      -54.625    -279.034     148.653
  O      -55.820    -278.920     148.371
  N      -54.212    -279.968     149.562
  C      -52.938    -280.115     150.028
  O      -52.628    -280.950     150.869
  C      -51.940    -279.195     149.464
  C      -52.326    -278.305     148.548
  O      -53.247    -278.263     141.248
  O      -53.108    -275.804     140.534
  H      -52.460    -274.349     147.722
  H      -54.048    -275.984     140.343
  H      -54.917    -280.574     149.950
  H      -50.922    -279.281     149.819
  H      -51.613    -277.612     148.111
  H      -55.029    -276.807     147.493
  H      -52.035    -276.502     146.883
  H      -52.730    -274.892     145.172
  H      -54.798    -276.550     144.267
  H      -51.875    -277.407     144.534
  H      -53.099    -278.248     143.548
  P      -55.321    -273.806     144.697
  C      -57.492    -274.946     143.905
  O      -56.920    -273.947     144.744
  O      -54.726    -274.045     143.345
  O      -55.070    -272.294     145.163
  H      -55.005    -271.714     144.382
  H      -58.556    -274.944     144.022
  H      -57.105    -275.905     144.178
  H      -57.246    -274.739     142.885

 6  7  8  9  10  11  12  13  14  15  16  26  31  32  33  34  35 0
 6-311+G(2d,p)
 ****
 36  37 0
 6-311+G(2d,p)
 ****
 1  2  3  4  5  17  18  19  20  21  22  23  24  25 0
 3-21G
 ****
 27  28  29  30  38  39  40  41  42  43  44  45 0
 3-21G
 ****


