%nproc=1
%NoSave
%Mem=1900MB
#P OB98/GEN NMR

erre ene a

0 1
  C        8.827    -267.028      48.614
  O        8.362    -266.062      49.562
  P        9.021    -264.599      49.517
  C        7.560    -263.533      47.654
  O        7.911    -263.547      49.030
  C        6.232    -262.801      47.420
  O        5.126    -263.529      48.017
  C        6.202    -261.387      48.014
  O        5.341    -260.577      47.205
  C        5.545    -261.611      49.360
  O        5.027    -260.391      49.903
  C        4.499    -262.658      48.987
  N        1.551    -262.505      53.077
  C        1.821    -261.529      52.134
  N        1.177    -260.354      52.289
  N        2.641    -261.697      51.132
  C        3.185    -262.939      51.088
  C        3.004    -263.986      51.963
  C        2.113    -263.779      53.083
  O        1.847    -264.599      53.957
  N        3.745    -265.081      51.596
  C        4.378    -264.691      50.501
  N        4.039    -263.416      50.134
  O       10.017    -264.694      48.265
  O        9.757    -264.231      50.763
  H        4.888    -260.537      50.866
  H       10.940    -264.717      48.580
  H        0.920    -262.321      53.840
  H        5.080    -265.292      49.942
  H        3.606    -262.215      48.520
  H        6.274    -262.015      50.071
  H        0.494    -260.173      53.010
  H        7.181    -260.900      48.096
  H        1.321    -259.633      51.589
  H        6.046    -262.751      46.343
  H        7.480    -264.561      47.278
  H        8.374    -263.073      47.086
  P        6.035    -259.457      46.294
  C        5.587    -260.963      44.226
  O        5.472    -259.680      44.811
  O        7.559    -259.945      46.193
  O        5.930    -258.065      46.823
  H        8.146    -259.190      46.016
  H        4.612    -261.458      44.256
  H        6.325    -261.583      44.742
  H        5.898    -260.847      43.181
  H        8.304    -267.950      48.759
  H        9.876    -267.187      48.752
  H        8.648    -266.669      47.622

 3  4  5  6  7  8  9  10  11  12  23  26  30  31 0
 6-311+G(2d,p)
 ****
 33  35  36  37  38 0
 6-311+G(2d,p)
 ****
 1  2  13  14  15  16  17  18  19  20  21  22  24  25 0
 3-21G
 ****
 27  28  29  32  34  39  40  41  42  43  44  45  46  47  48  49 0
 3-21G
 ****


