%nproc=1
%NoSave
%Mem=1900MB
#P OB98/GEN NMR

erre ene a

0 1
  C        3.581      68.544     361.143
  O        4.666      68.138     361.979
  P        6.170      68.308     361.445
  C        6.297      66.241     359.907
  O        6.266      67.659     359.976
  C        6.670      65.770     358.490
  O        6.660      64.313     358.417
  C        5.685      66.279     357.424
  O        6.366      66.517     356.183
  C        4.758      65.096     357.228
  O        4.076      65.162     355.976
  C        5.745      63.936     357.369
  N        3.968      59.513     355.473
  C        4.641      60.538     354.893
  N        5.100      61.673     355.467
  C        4.821      61.689     356.780
  C        4.155      60.717     357.517
  C        3.708      59.588     356.805
  N        3.000      58.563     357.387
  N        4.043      61.088     358.841
  C        4.593      62.284     358.897
  N        5.107      62.676     357.686
  O        7.244      67.890     362.390
  O        6.259      69.879     361.131
  H        3.378      64.486     355.993
  H        7.125      70.216     361.433
  H        4.828      60.430     353.830
  H        4.637      62.910     359.779
  H        6.328      63.789     356.455
  H        4.005      65.079     358.030
  H        5.140      67.189     357.709
  H        7.688      66.102     358.260
  H        5.325      65.837     360.193
  H        2.627      57.852     356.778
  H        2.672      58.676     358.335
  H        7.007      65.858     360.654
  P        6.962      68.001     355.975
  C        5.117      68.889     354.347
  O        5.704      68.932     355.628
  O        8.111      68.052     355.018
  O        7.357      68.404     357.473
  H        6.652      68.274     358.133
  H        4.209      69.490     354.349
  H        4.854      67.860     354.071
  H        5.806      69.302     353.601
  H        2.655      68.363     361.648
  H        3.605      67.985     360.231
  H        3.670      69.588     360.924

 3  4  5  6  7  8  9  10  11  12  22  25  29  30  31  32 0
 6-311+G(2d,p)
 ****
 33  36  37 0
 6-311+G(2d,p)
 ****
 1  2  13  14  15  16  17  18  19  20  21  23  24  26 0
 3-21G
 ****
 27  28  34  35  38  39  40  41  42  43  44  45  46  47  48 0
 3-21G
 ****


