%nproc=1
%NoSave
%Mem=1900MB
#P OB98/GEN NMR

erre ene a

0 1
  C      212.895     851.361      54.085
  O      213.022     851.525      52.686
  H      213.811     851.698      54.580
  H      212.063     851.977      54.440
  H      212.698     850.317      54.338
  P      213.981     850.500      51.911
  C      215.817     852.293      51.520
  O      215.486     851.044      52.103
  C      217.187     852.763      52.021
  O      217.041     853.244      53.379
  C      218.269     851.674      52.010
  O      219.512     852.265      51.606
  C      218.369     851.271      53.478
  O      219.644     850.725      53.810
  C      218.067     852.594      54.162
  N      219.439     850.596      58.635
  C      220.155     850.930      57.538
  N      219.719     851.506      56.405
  C      218.401     851.812      56.500
  C      217.550     851.546      57.556
  C      218.110     850.888      58.661
  N      217.383     850.489      59.753
  N      216.264     851.964      57.246
  C      216.346     852.454      56.026
  N      217.621     852.379      55.528
  O      213.663     850.824      50.375
  O      213.775     849.055      52.232
  H      219.837     849.989      53.184
  H      212.904     850.290      50.078
  H      221.210     850.682      57.570
  H      215.519     852.823      55.448
  H      218.939     853.263      54.209
  H      217.596     850.526      53.702
  H      218.038     850.821      51.363
  H      217.496     853.622      51.407
  H      215.057     853.036      51.806
  H      217.846     849.923      60.455
  H      216.377     850.601      59.738
  H      215.818     852.198      50.430
  P      219.894     852.195      50.048
  C      221.252     849.977      50.169
  O      220.120     850.657      49.647
  O      221.367     852.807      50.005
  O      218.952     852.948      49.162
  H      221.508     853.286      49.167
  H      221.259     848.969      49.811
  H      221.205     849.975      51.238
  H      222.145     850.475      49.852

 6  7  8  9  10  11  12  13  14  15  25  28  32  33  34  35 0
 6-311+G(2d,p)
 ****
 36  39  40 0
 6-311+G(2d,p)
 ****
 1  2  3  4  5  16  17  18  19  20  21  22  23  24 0
 3-21G
 ****
 26  27  29  30  31  37  38  41  42  43  44  45  46  47 0
 3-21G
 ****
 48 0
 3-21G
 ****


