%nproc=1
%NoSave
%Mem=1900MB
#P OB98/GEN NMR

erre ene a

0 1
  C      832.708     216.478    -552.162
  O      832.076     216.298    -553.413
  H      833.735     216.115    -552.231
  H      832.183     215.895    -551.396
  H      832.724     217.533    -551.880
  P      830.617     216.912    -553.639
  C      831.682     218.698    -555.169
  O      830.819     218.444    -554.073
  C      831.541     220.147    -555.642
  O      830.145     220.393    -555.982
  C      831.948     221.205    -554.590
  O      832.438     222.346    -555.307
  C      830.601     221.489    -553.943
  O      830.628     222.625    -553.119
  C      829.728     221.542    -555.212
  N      828.285     221.512    -554.969
  C      827.530     222.579    -555.436
  O      827.982     223.540    -556.045
  N      826.178     222.509    -555.182
  C      825.539     221.493    -554.534
  O      824.329     221.466    -554.364
  C      826.398     220.401    -554.055
  C      827.708     220.457    -554.292
  O      829.644     216.694    -552.530
  O      830.122     216.224    -554.999
  H      829.501     215.497    -554.792
  H      831.031     222.386    -552.258
  H      825.621     223.267    -555.526
  H      825.921     219.585    -553.519
  H      828.364     219.659    -553.960
  H      829.975     222.438    -555.796
  H      830.313     220.662    -553.299
  H      832.710     220.844    -553.900
  H      832.118     220.271    -556.571
  H      831.416     218.014    -555.990
  H      832.718     218.500    -554.871
  P      833.952     222.481    -555.818
  C      833.407     223.260    -558.221
  O      833.967     222.244    -557.417
  O      834.919     221.621    -555.072
  O      834.317     224.038    -555.654
  H      835.279     224.131    -555.548
  H      833.480     222.980    -559.251
  H      833.938     224.175    -558.061
  H      832.378     223.395    -557.960

 6  7  8  9  10  11  12  13  14  15  16  27  31  32  33  34  35 0
 6-311+G(2d,p)
 ****
 36  37 0
 6-311+G(2d,p)
 ****
 1  2  3  4  5  17  18  19  20  21  22  23  24  25 0
 3-21G
 ****
 26  28  29  30  38  39  40  41  42  43  44  45 0
 3-21G
 ****


