%nproc=1
%NoSave
%Mem=1900MB
#P OB98/GEN NMR

erre ene a

0 1
  C        3.466      10.223     -14.916
  O        4.625      11.002     -15.147
  P        5.334      11.765     -13.931
  C        6.544      10.939     -11.780
  O        5.583      10.679     -12.779
  C        6.322      10.047     -10.552
  O        5.334      10.689      -9.710
  C        5.771       8.659     -10.859
  O        6.005       7.817      -9.729
  C        4.290       8.936     -10.988
  O        3.504       7.758     -10.826
  C        4.060      10.037      -9.922
  N        3.052      11.017     -10.365
  C        2.165      11.487      -9.401
  O        2.244      11.179      -8.212
  N        1.132      12.256      -9.862
  C        0.890      12.545     -11.172
  O       -0.183      12.961     -11.593
  C        1.982      12.227     -12.105
  C        2.988      11.464     -11.671
  O        4.154      12.675     -13.348
  O        6.526      12.574     -14.306
  H        3.744       7.153     -11.566
  H        4.214      13.578     -13.713
  H        0.412      12.475      -9.185
  H        1.897      12.573     -13.126
  H        3.782      11.169     -12.351
  H        3.721       9.609      -8.971
  H        4.085       9.334     -11.989
  H        6.181       8.203     -11.764
  H        7.256       9.974      -9.982
  H        6.499      11.996     -11.503
  H        7.553      10.764     -12.169
  P        6.166       6.243      -9.988
  C        7.883       4.762     -11.193
  O        7.400       6.076     -10.998
  O        4.922       5.511     -10.366
  O        6.771       5.709      -8.602
  H        6.635       4.747      -8.532
  H        8.305       4.688     -12.198
  H        7.086       4.022     -11.087
  H        8.669       4.556     -10.462
  H        3.136       9.793     -15.838
  H        2.693      10.844     -14.515
  H        3.693       9.443     -14.220

 3  4  5  6  7  8  9  10  11  12  13  23  28  29  30  31  32 0
 6-311+G(2d,p)
 ****
 33  34 0
 6-311+G(2d,p)
 ****
 1  2  14  15  16  17  18  19  20  21  22  24  25  26  27 0
 3-21G
 ****
 35  36  37  38  39  40  41  42  43  44  45 0
 3-21G
 ****


