%nproc=1
%NoSave
%Mem=1900MB
#P OB98/GEN NMR

erre ene a

0 1
  C      354.608      99.469     122.993
  O      354.160     100.804     122.870
  H      354.763      99.058     121.992
  H      353.869      98.854     123.515
  H      355.561      99.441     123.531
  P      353.616     101.542     124.190
  C      355.028     103.707     124.243
  O      354.865     102.384     124.755
  C      356.467     104.197     124.436
  O      357.376     103.374     123.674
  C      356.703     105.615     123.939
  O      356.069     106.609     124.715
  C      358.215     105.651     123.760
  O      358.921     105.978     124.954
  C      358.523     104.188     123.355
  N      358.899     104.076     121.949
  C      360.260     103.988     121.689
  O      361.123     104.018     122.571
  N      360.617     103.900     120.374
  C      359.755     103.946     119.311
  O      360.139     103.904     118.146
  C      358.328     104.068     119.645
  C      357.967     104.125     120.931
  O      352.971     100.657     125.213
  O      352.645     102.677     123.616
  H      359.874     105.980     124.731
  H      352.049     103.026     124.322
  H      361.600     103.824     120.164
  H      357.618     104.108     118.829
  H      356.920     104.217     121.204
  H      359.355     103.799     123.955
  H      358.511     106.382     123.003
  H      356.273     105.698     122.934
  H      356.727     104.099     125.495
  H      354.348     104.365     124.797
  H      354.754     103.727     123.182
  P      354.799     107.440     124.208
  C      353.200     107.390     126.258
  O      353.496     106.874     124.966
  O      354.712     107.710     122.739
  O      355.030     108.856     124.948
  H      354.696     109.553     124.354
  H      352.313     106.924     126.634
  H      353.048     108.447     126.194
  H      354.017     107.187     126.919

 6  7  8  9  10  11  12  13  14  15  16  26  31  32  33  34  35 0
 6-311+G(2d,p)
 ****
 36  37 0
 6-311+G(2d,p)
 ****
 1  2  3  4  5  17  18  19  20  21  22  23  24  25 0
 3-21G
 ****
 27  28  29  30  38  39  40  41  42  43  44  45 0
 3-21G
 ****


