%nproc=1
%NoSave
%Mem=1900MB
#P OB98/GEN NMR

erre ene a

0 1
  C      199.620     147.605    -169.975
  O      200.674     146.682    -169.795
  H      199.685     148.369    -169.196
  H      198.654     147.100    -169.896
  H      199.707     148.087    -170.953
  P      200.689     145.411    -170.777
  C      201.769     146.661    -172.796
  O      200.604     146.068    -172.242
  C      201.958     146.196    -174.235
  O      202.094     144.758    -174.292
  C      200.795     146.527    -175.166
  O      200.778     147.880    -175.587
  C      201.103     145.582    -176.314
  O      202.206     146.099    -177.081
  C      201.506     144.308    -175.544
  N      200.375     143.411    -175.287
  C      200.208     142.343    -176.177
  O      200.980     142.183    -177.120
  N      199.141     141.495    -175.997
  C      198.326     141.680    -175.006
  N      197.289     140.809    -174.881
  C      198.471     142.783    -174.039
  C      199.505     143.601    -174.236
  O      199.229     144.782    -170.591
  O      201.809     144.445    -170.584
  H      202.422     145.422    -177.748
  H      199.079     144.074    -171.264
  H      197.759     142.905    -173.235
  H      199.678     144.434    -173.565
  H      202.279     143.748    -176.085
  H      200.270     145.454    -177.004
  H      199.833     146.244    -174.724
  H      202.897     146.628    -174.604
  H      197.181     140.100    -175.594
  H      202.629     146.362    -172.186
  H      196.521     140.958    -174.238
  H      201.681     147.751    -172.775
  P      199.395     148.454    -176.165
  C      197.893     147.834    -174.131
  O      198.218     147.597    -175.494
  O      199.398     147.952    -177.683
  O      199.239     149.939    -176.066
  H      198.965     148.603    -178.268
  H      197.093     147.187    -173.837
  H      197.590     148.853    -174.008
  H      198.751     147.641    -173.521

 6  7  8  9  10  11  12  13  14  15  16  26  30  31  32  33  35 0
 6-311+G(2d,p)
 ****
 37  38 0
 6-311+G(2d,p)
 ****
 1  2  3  4  5  17  18  19  20  21  22  23  24  25 0
 3-21G
 ****
 27  28  29  34  36  39  40  41  42  43  44  45  46 0
 3-21G
 ****


