%nproc=1
%NoSave
%Mem=1900MB
#P OB98/GEN NMR

erre ene a

0 1
  C      114.016      -9.134     430.151
  O      113.917      -7.723     430.117
  H      114.998      -9.426     429.773
  H      113.248      -9.575     429.511
  H      113.907      -9.503     431.174
  P      112.653      -7.056     430.842
  C      112.138      -6.681     433.363
  O      113.119      -6.703     432.339
  C      112.811      -6.735     434.733
  O      113.610      -7.950     434.809
  C      113.745      -5.552     435.017
  O      113.650      -5.223     436.406
  C      115.121      -6.126     434.735
  O      116.177      -5.441     435.393
  C      114.938      -7.567     435.221
  N      115.942      -8.476     434.674
  C      117.118      -8.642     435.398
  O      117.337      -8.147     436.502
  N      118.074      -9.422     434.802
  C      117.982     -10.014     433.575
  O      118.882     -10.684     433.085
  C      116.720      -9.796     432.855
  C      115.775      -9.047     433.427
  O      111.661      -8.296     431.046
  O      112.014      -5.926     430.107
  H      111.075      -8.393     430.274
  H      116.224      -4.540     435.014
  H      118.934      -9.552     435.311
  H      116.614     -10.242     431.874
  H      114.840      -8.848     432.913
  H      114.964      -7.605     436.317
  H      115.322      -6.101     433.657
  H      113.539      -4.662     434.412
  H      112.035      -6.814     435.504
  H      111.481      -7.550     433.254
  H      111.536      -5.770     433.266
  P      112.247      -4.648     436.935
  C      109.948      -5.902     436.828
  O      111.324      -5.935     437.184
  O      111.663      -3.988     435.602
  O      112.397      -3.720     438.092
  H      111.896      -4.484     434.799
  H      109.496      -6.842     437.065
  H      109.856      -5.717     435.778
  H      109.457      -5.122     437.373

 6  7  8  9  10  11  12  13  14  15  16  27  31  32  33  34  35 0
 6-311+G(2d,p)
 ****
 36  37 0
 6-311+G(2d,p)
 ****
 1  2  3  4  5  17  18  19  20  21  22  23  24  25 0
 3-21G
 ****
 26  28  29  30  38  39  40  41  42  43  44  45 0
 3-21G
 ****


