%nproc=1
%NoSave
%Mem=1900MB
#P OB98/GEN NMR

erre ene a

0 1
  C     -125.803    -426.341     223.694
  O     -125.504    -427.488     224.464
  H     -125.123    -426.305     222.836
  H     -125.659    -425.437     224.292
  H     -126.832    -426.387     223.327
  P     -126.420    -427.751     225.754
  C     -126.423    -430.354     225.778
  O     -125.936    -429.153     226.369
  C     -125.526    -431.525     226.173
  O     -124.273    -431.428     225.461
  C     -125.159    -431.565     227.648
  O     -126.201    -432.099     228.446
  C     -123.910    -432.437     227.621
  O     -124.242    -433.828     227.614
  C     -123.258    -432.043     226.290
  N     -118.460    -431.045     224.898
  C     -119.336    -431.990     224.496
  N     -120.611    -432.173     224.906
  C     -120.950    -431.250     225.817
  C     -120.162    -430.232     226.327
  C     -118.852    -430.143     225.825
  N     -117.942    -429.203     226.263
  N     -120.852    -429.517     227.286
  C     -122.043    -430.084     227.348
  N     -122.147    -431.131     226.476
  O     -127.848    -428.089     225.113
  O     -126.493    -426.619     226.725
  H     -124.511    -434.046     226.696
  H     -128.393    -427.280     225.082
  H     -118.964    -432.691     223.754
  H     -122.847    -429.776     228.004
  H     -122.877    -432.915     225.741
  H     -123.282    -432.255     228.500
  H     -124.880    -430.561     227.997
  H     -126.018    -432.459     225.871
  H     -126.421    -430.247     224.689
  H     -127.454    -430.526     226.120
  H     -117.017    -429.214     225.872
  H     -118.199    -428.591     227.033
  P     -127.173    -431.088     229.220
  C     -129.157    -432.725     228.834
  O     -128.426    -431.931     229.758
  O     -127.794    -430.198     228.044
  O     -126.501    -430.250     230.256
  H     -127.337    -429.339     227.986
  H     -129.956    -433.222     229.344
  H     -128.506    -433.453     228.396
  H     -129.559    -432.098     228.066

 6  7  8  9  10  11  12  13  14  15  25  28  32  33  34  35 0
 6-311+G(2d,p)
 ****
 36  37  40 0
 6-311+G(2d,p)
 ****
 1  2  3  4  5  16  17  18  19  20  21  22  23  24 0
 3-21G
 ****
 26  27  29  30  31  38  39 41  42  43  44  45  46  47  48 0
 3-21G
 ****


