%nproc=1
%NoSave
%Mem=1900MB
#P OB98/GEN NMR

erre ene a

0 1
  C     -211.573      96.516     -97.614
  O     -212.547      95.666     -97.040
  H     -211.165      97.185     -96.853
  H     -210.762      95.902     -98.017
  H     -212.012      97.099     -98.428
  P     -213.816      96.389     -96.375
  C     -214.638      96.795     -93.955
  O     -213.550      96.425     -94.789
  C     -214.346      96.398     -92.509
  O     -214.507      94.959     -92.396
  C     -212.930      96.761     -92.030
  O     -212.982      97.455     -90.775
  C     -212.256      95.418     -91.810
  O     -211.340      95.427     -90.723
  C     -213.439      94.489     -91.559
  N     -210.669      90.477     -90.068
  C     -211.084      91.568     -89.398
  N     -211.899      92.554     -89.823
  C     -212.326      92.312     -91.079
  C     -212.003      91.227     -91.881
  C     -211.113      90.286     -91.336
  N     -210.645      89.199     -92.037
  N     -212.626      91.326     -93.112
  C     -213.274      92.476     -93.068
  N     -213.112      93.111     -91.867
  O     -214.984      95.302     -96.539
  O     -214.188      97.691     -97.001
  H     -211.841      95.661     -89.921
  H     -215.693      95.683     -97.089
  H     -210.707      91.672     -88.382
  H     -213.834      92.908     -93.887
  H     -213.781      94.538     -90.519
  H     -211.715      95.135     -92.721
  H     -212.384      97.366     -92.757
  H     -215.101      96.857     -91.858
  H     -215.549      96.282     -94.288
  H     -209.921      88.640     -91.613
  H     -210.889      89.115     -93.017
  H     -214.795      97.876     -94.028
  P     -212.279      98.901     -90.737
  C     -209.850      99.829     -90.783
  O     -210.686      98.678     -90.792
  O     -212.551      99.398     -89.238
  O     -212.824      99.863     -91.738
  H     -213.008     100.258     -89.253
  H     -208.825      99.525     -90.823
  H     -210.022     100.388     -89.887
  H     -210.075     100.440     -91.632

 6  7  8  9  10  11  12  13  14  15  25  28  32  33  34  35 0
 6-311+G(2d,p)
 ****
 36  39  40 0
 6-311+G(2d,p)
 ****
 1  2  3  4  5  16  17  18  19  20  21  22  23  24 0
 3-21G
 ****
 26  27  29  30  31  37  38  41  42  43  44  45  46  47  48 0
 3-21G
 ****


