%nproc=1
%NoSave
%Mem=1900MB
#P OB98/GEN NMR

erre ene a

0 1
  C     -242.316     -18.638     -49.949
  O     -243.301     -19.621     -50.197
  H     -241.593     -18.648     -50.770
  H     -241.790     -18.860     -49.016
  H     -242.773     -17.646     -49.892
  P     -244.486     -19.742     -49.123
  C     -246.200     -19.795     -51.079
  O     -245.723     -20.417     -49.892
  C     -247.439     -20.530     -51.583
  O     -247.054     -21.822     -52.104
  C     -248.480     -20.813     -50.507
  O     -249.271     -19.675     -50.219
  C     -249.263     -21.953     -51.146
  O     -250.257     -21.462     -52.056
  C     -248.178     -22.712     -51.919
  N     -249.104     -27.689     -51.313
  C     -249.653     -26.760     -52.128
  N     -249.334     -25.452     -52.241
  C     -248.328     -25.137     -51.406
  C     -247.678     -25.973     -50.514
  C     -248.099     -27.313     -50.485
  N     -247.567     -28.250     -49.632
  N     -246.733     -25.271     -49.794
  C     -246.806     -24.036     -50.247
  N     -247.752     -23.911     -51.224
  O     -244.947     -18.220     -48.928
  O     -244.110     -20.384     -47.830
  H     -250.825     -22.223     -52.285
  H     -244.490     -17.836     -48.155
  H     -250.455     -27.113     -52.768
  H     -246.206     -23.204     -49.897
  H     -248.515     -23.019     -52.916
  H     -249.780     -22.550     -50.393
  H     -247.991     -21.187     -49.597
  H     -247.878     -19.949     -52.405
  H     -245.419     -19.837     -51.847
  H     -246.432     -18.747     -50.862
  H     -247.935     -29.186     -49.649
  H     -246.892     -27.952     -48.937
  P     -249.489     -19.263     -48.687
  C     -250.249     -16.837     -49.241
  O     -250.579     -18.084     -48.650
  O     -248.121     -18.525     -48.306
  O     -249.784     -20.401     -47.769
  H     -247.535     -19.129     -47.811
  H     -251.073     -16.163     -49.135
  H     -250.037     -16.980     -50.280
  H     -249.388     -16.428     -48.754

 6  7  8  9  10  11  12  13  14  15  25  28  32  33  34  35 0
 6-311+G(2d,p)
 ****
 36  37  40 0
 6-311+G(2d,p)
 ****
 1  2  3  4  5  16  17  18  19  20  21  22  23  24 0
 3-21G
 ****
 26  27  29  30  31  38  39 41  42  43  44  45  46  47  48 0
 3-21G
 ****


