%nproc=1
%NoSave
%Mem=1900MB
#P OB98/GEN NMR

erre ene a

0 1
  C     -221.285     277.712     473.219
  O     -220.537     276.998     474.215
  P     -218.999     276.666     473.909
  C     -219.294     274.378     472.702
  O     -218.929     275.746     472.595
  C     -218.428     273.518     471.774
  O     -218.552     273.928     470.396
  C     -216.944     273.587     472.086
  O     -216.594     272.720     473.154
  C     -216.344     273.084     470.779
  O     -216.413     271.644     470.733
  C     -217.287     273.694     469.735
  N     -215.497     276.000     465.528
  C     -215.851     274.715     465.770
  N     -216.305     274.177     466.923
  C     -216.389     275.109     467.883
  C     -216.059     276.451     467.782
  C     -215.594     276.896     466.535
  N     -215.234     278.202     466.292
  N     -216.266     277.096     468.983
  C     -216.726     276.163     469.792
  N     -216.810     274.944     469.175
  O     -218.605     275.657     475.085
  O     -218.112     277.866     473.896
  H     -216.041     271.371     469.874
  H     -217.674     275.796     475.341
  H     -215.763     274.034     464.927
  H     -217.016     276.322     470.823
  H     -217.475     273.013     468.896
  H     -215.292     273.357     470.666
  H     -216.628     274.623     472.271
  H     -218.776     272.479     471.857
  H     -220.352     274.253     472.451
  H     -214.934     278.451     465.361
  H     -215.327     278.879     467.034
  H     -219.185     274.058     473.744
  P     -216.028     273.395     474.494
  C     -213.522     273.693     473.883
  O     -214.788     274.300     474.035
  O     -215.353     272.163     475.259
  O     -217.062     274.072     475.326
  H     -215.396     272.304     476.221
  H     -212.884     274.353     473.289
  H     -213.601     272.734     473.371
  H     -213.062     273.550     474.864
  H     -222.288     277.859     473.563
  H     -221.299     277.147     472.310
  H     -220.826     278.662     473.041

 3  4  5  6  7  8  9  10  11  12  22  25  29  30  31  32 0
 6-311+G(2d,p)
 ****
 33  36  37 0
 6-311+G(2d,p)
 ****
 1  2  13  14  15  16  17  18  19  20  21  23  24  26 0
 3-21G
 ****
 27  28  34  35  38  39  40  41  42  43  44  45  46  47  48 0
 3-21G
 ****


