%nproc=1
%NoSave
%Mem=1900MB
#P OB98/GEN NMR

erre ene a

0 1
  C     -305.272     225.845      51.235
  O     -304.543     224.727      50.775
  H     -304.899     226.738      50.727
  H     -305.122     225.963      52.312
  H     -306.337     225.739      51.022
  P     -305.109     223.261      51.077
  C     -303.076     222.655      52.548
  O     -304.487     222.792      52.480
  C     -302.677     221.449      53.407
  O     -303.344     221.527      54.691
  C     -303.139     220.146      52.746
  O     -302.298     219.044      53.087
  C     -304.516     219.928      53.353
  O     -304.947     218.574      53.288
  C     -304.293     220.449      54.773
  N     -307.560     219.853      58.642
  C     -306.488     219.065      58.276
  N     -306.271     217.961      59.022
  N     -305.712     219.326      57.254
  C     -306.093     220.422      56.553
  C     -307.149     221.267      56.804
  C     -307.979     220.989      57.958
  O     -308.953     221.643      58.319
  N     -307.232     222.261      55.861
  C     -306.232     222.015      55.036
  N     -305.501     220.916      55.423
  O     -304.334     222.329      50.026
  O     -306.594     223.101      50.959
  H     -305.856     218.537      53.642
  H     -304.849     221.523      49.842
  H     -308.118     219.615      59.444
  H     -305.991     222.596      54.156
  H     -303.862     219.666      55.408
  H     -305.238     220.527      52.789
  H     -306.941     217.627      59.698
  H     -303.187     220.233      51.658
  H     -305.690     217.229      58.601
  H     -301.600     221.465      53.604
  H     -302.683     223.576      52.992
  H     -302.656     222.570      51.543
  P     -301.400     218.413      51.922
  C     -302.145     215.898      51.858
  O     -302.215     217.188      51.279
  O     -300.197     217.713      52.711
  O     -300.911     219.414      50.924
  H     -299.382     218.244      52.621
  H     -302.750     215.220      51.293
  H     -302.502     215.940      52.866
  H     -301.130     215.559      51.852

 6  7  8  9  10  11  12  13  14  15  26  29  33  34 0
 6-311+G(2d,p)
 ****
 36  38  39  40  41 0
 6-311+G(2d,p)
 ****
 1  2  3  4  5  16  17  18  19  20  21  22  23  24  25 0
 3-21G
 ****
 27  28  30  31  32  35  37  42  43  44  45  46  47 0
 3-21G
 ****
 48  49 0
 3-21G
 ****


