%nproc=1
%NoSave
%Mem=1900MB
#P OB98/GEN NMR

erre ene a

0 1
  C     1450.986    -417.653     188.197
  O     1450.160    -416.855     187.392
  H     1451.148    -417.136     189.156
  H     1451.954    -417.805     187.727
  H     1450.515    -418.614     188.402
  P     1449.826    -417.351     185.902
  C     1447.364    -416.585     185.701
  O     1448.246    -417.691     185.856
  C     1446.336    -416.593     186.858
  O     1447.063    -416.477     188.115
  C     1445.352    -415.407     186.742
  O     1443.978    -415.806     186.813
  C     1445.826    -414.446     187.839
  O     1444.839    -413.601     188.360
  C     1446.488    -415.387     188.870
  N     1447.488    -414.748     189.701
  C     1447.316    -414.819     191.077
  O     1446.371    -415.369     191.652
  N     1448.283    -414.183     191.818
  C     1449.356    -413.502     191.357
  O     1450.178    -412.960     192.078
  C     1449.489    -413.479     189.883
  C     1448.543    -414.070     189.130
  O     1450.717    -418.425     185.368
  O     1449.911    -416.017     185.017
  H     1445.214    -413.174     189.142
  H     1450.765    -416.019     184.532
  H     1448.147    -414.217     192.829
  H     1450.343    -412.941     189.470
  H     1448.611    -414.059     188.051
  H     1445.719    -415.819     189.532
  H     1446.617    -413.812     187.405
  H     1445.430    -414.911     185.772
  H     1445.808    -417.549     186.863
  H     1446.855    -416.692     184.754
  H     1447.930    -415.644     185.725
  P     1443.144    -416.355     185.545
  C     1441.604    -417.951     186.931
  O     1442.590    -417.803     185.931
  O     1443.802    -416.198     184.208
  O     1441.811    -415.423     185.561
  H     1441.569    -415.317     184.611
  H     1441.364    -418.988     187.045
  H     1440.725    -417.411     186.648
  H     1441.976    -417.567     187.858

 6  7  8  9  10  11  12  13  14  15  16  26  31  32  33  34  35 0
 6-311+G(2d,p)
 ****
 36  37 0
 6-311+G(2d,p)
 ****
 1  2  3  4  5  17  18  19  20  21  22  23  24  25 0
 3-21G
 ****
 27  28  29  30  38  39  40  41  42  43  44  45 0
 3-21G
 ****


