%nproc=1
%NoSave
%Mem=1900MB
#P OB98/GEN NMR

erre ene a

0 1
  C      399.406    -379.625    -388.901
  O      400.134    -379.032    -387.844
  H      398.964    -378.831    -389.510
  H      398.601    -380.252    -388.510
  H      400.068    -380.224    -389.534
  P      400.876    -379.995    -386.802
  C      402.851    -378.406    -386.313
  O      401.680    -379.031    -385.804
  C      402.823    -376.915    -386.004
  O      402.475    -376.692    -384.623
  C      404.158    -376.209    -386.235
  O      404.331    -375.915    -387.612
  C      403.967    -374.971    -385.375
  O      403.110    -374.034    -386.056
  C      403.249    -375.553    -384.148
  N      406.574    -374.130    -380.599
  C      405.913    -373.376    -381.547
  N      406.213    -372.060    -381.580
  N      405.049    -373.871    -382.398
  C      404.902    -375.210    -382.292
  C      405.513    -376.066    -381.404
  C      406.426    -375.501    -380.431
  O      407.019    -376.129    -379.561
  N      405.166    -377.372    -381.640
  C      404.313    -377.298    -382.646
  N      404.132    -376.011    -383.086
  O      401.715    -381.089    -387.390
  O      399.693    -380.568    -385.891
  H      403.526    -373.851    -386.916
  H      399.358    -381.414    -386.238
  H      407.242    -373.693    -379.984
  H      403.802    -378.144    -383.087
  H      402.545    -374.843    -383.700
  H      404.900    -374.454    -385.152
  H      407.058    -371.695    -381.157
  H      404.998    -376.785    -385.832
  H      405.778    -371.500    -382.302
  H      402.029    -376.461    -386.611
  H      402.873    -378.573    -387.395
  H      403.744    -378.857    -385.870
  P      405.684    -375.239    -388.151
  C      404.693    -376.027    -390.405
  O      405.447    -375.031    -389.723
  O      406.935    -375.972    -387.803
  O      405.635    -373.746    -387.594
  H      406.036    -373.643    -386.695
  H      404.611    -375.766    -391.440
  H      403.715    -376.091    -389.975
  H      405.186    -376.972    -390.313

 6  7  8  9  10  11  12  13  14  15  26  29  33  34 0
 6-311+G(2d,p)
 ****
 36  38  39  40  41 0
 6-311+G(2d,p)
 ****
 1  2  3  4  5  16  17  18  19  20  21  22  23  24  25 0
 3-21G
 ****
 27  28  30  31  32  35  37  42  43  44  45  46  47 0
 3-21G
 ****
 48  49 0
 3-21G
 ****


