%nproc=1
%NoSave
%Mem=1900MB
#P OB98/GEN NMR

erre ene a

0 1
  C      303.967     926.712    -357.251
  O      302.734     927.305    -356.903
  H      304.206     925.938    -356.519
  H      304.762     927.471    -357.227
  H      303.914     926.261    -358.244
  P      302.116     928.353    -357.955
  C      299.807     927.172    -358.366
  O      300.521     928.245    -357.787
  C      298.408     927.056    -357.750
  O      298.520     926.383    -356.472
  C      297.731     928.409    -357.517
  O      296.327     928.260    -357.744
  C      297.971     928.670    -356.031
  O      297.017     929.566    -355.477
  C      297.926     927.235    -355.463
  N      298.609     927.116    -354.177
  C      298.013     927.756    -353.089
  O      296.967     928.389    -353.241
  N      298.629     927.697    -351.869
  C      299.779     927.116    -351.754
  N      300.359     927.112    -350.522
  C      300.470     926.466    -352.885
  C      299.830     926.495    -354.059
  O      302.403     927.624    -359.349
  O      302.674     929.732    -357.847
  H      297.231     929.685    -354.524
  H      302.196     926.676    -359.342
  H      301.436     925.999    -352.751
  H      300.259     926.046    -354.947
  H      296.884     926.914    -355.340
  H      298.968     929.099    -355.884
  H      298.130     929.197    -358.150
  H      297.794     926.416    -358.397
  H      299.865     927.584    -349.775
  H      300.345     926.225    -358.217
  H      301.275     926.736    -350.329
  H      299.731     927.352    -359.446
  P      295.426     929.556    -357.997
  C      294.781     928.850    -360.394
  O      294.316     929.221    -359.105
  O      296.173     930.827    -358.197
  O      294.549     929.641    -356.643
  H      294.492     930.584    -356.386
  H      293.945     928.655    -361.032
  H      295.383     927.969    -360.316
  H      295.365     929.646    -360.805

 6  7  8  9  10  11  12  13  14  15  16  26  30  31  32  33  35 0
 6-311+G(2d,p)
 ****
 37  38 0
 6-311+G(2d,p)
 ****
 1  2  3  4  5  17  18  19  20  21  22  23  24  25 0
 3-21G
 ****
 27  28  29  34  36  39  40  41  42  43  44  45  46 0
 3-21G
 ****


