%nproc=1
%NoSave
%Mem=1900MB
#P OB98/GEN NMR

erre ene a

0 1
  C       -6.194       1.932      50.054
  O       -7.521       2.367      49.828
  H       -5.833       2.306      51.016
  H       -6.182       0.839      50.075
  H       -5.539       2.277      49.248
  P       -7.749       3.952      49.734
  C       -7.655       5.921      51.423
  O       -7.421       4.540      51.193
  C       -6.670       6.454      52.460
  O       -5.313       6.198      52.039
  C       -6.748       7.960      52.702
  O       -7.823       8.301      53.565
  C       -5.401       8.211      53.362
  O       -5.460       7.823      54.748
  C       -4.481       7.254      52.586
  N       -0.410      10.102      51.353
  C       -0.807       9.558      52.525
  N       -1.894       8.792      52.769
  C       -2.597       8.591      51.642
  C       -2.304       9.062      50.371
  C       -1.154       9.860      50.243
  N       -0.792      10.471      49.051
  N       -3.268       8.661      49.467
  C       -4.136       7.976      50.183
  N       -3.766       7.899      51.501
  O       -9.345       4.076      49.621
  O       -7.060       4.626      48.593
  H       -6.041       8.466      55.195
  H       -9.593       4.171      48.683
  H       -0.172       9.763      53.377
  H       -5.038       7.523      49.796
  H       -3.739       6.776      53.236
  H       -5.096       9.261      53.331
  H       -6.795       8.515      51.758
  H       -6.834       5.903      53.397
  H       -8.678       6.062      51.790
  H       -0.278      11.338      49.180
  H       -1.519      10.470      48.344
  H       -7.537       6.459      50.478
  P       -8.940       9.307      53.002
  C       -8.934      11.528      51.677
  O       -8.154      10.531      52.324
  O       -9.551       9.940      54.341
  O      -10.002       8.676      52.168
  H      -10.519       9.795      54.361
  H       -8.288      12.279      51.272
  H       -9.600      11.975      52.385
  H       -9.500      11.081      50.887

 6  7  8  9  10  11  12  13  14  15  25  28  32  33  34  35 0
 6-311+G(2d,p)
 ****
 36  39  40 0
 6-311+G(2d,p)
 ****
 1  2  3  4  5  16  17  18  19  20  21  22  23  24 0
 3-21G
 ****
 26  27  29  30  31  37  38  41  42  43  44  45  46  47  48 0
 3-21G
 ****


