%nproc=1
%NoSave
%Mem=1900MB
#P OB98/GEN NMR

erre ene a

0 1
  C     1352.369     626.100     798.683
  O     1351.832     626.532     799.958
  P     1351.811     625.484     801.179
  C     1353.630     626.458     802.732
  O     1353.293     625.402     801.845
  C     1355.023     626.216     803.350
  O     1355.040     624.980     804.159
  C     1356.144     626.060     802.263
  O     1357.379     626.560     802.757
  C     1356.258     624.509     802.181
  O     1357.527     624.165     801.606
  C     1356.055     624.147     803.658
  N     1357.722     619.287     803.993
  C     1358.395     620.455     803.941
  N     1357.872     621.703     803.881
  C     1356.536     621.674     803.902
  C     1355.708     620.546     803.999
  C     1356.357     619.322     804.050
  N     1355.683     618.121     804.129
  N     1354.361     620.931     803.986
  C     1354.380     622.241     803.848
  N     1355.705     622.747     803.803
  O     1351.218     624.156     800.886
  O     1350.983     626.252     802.338
  H     1358.200     624.642     802.065
  H     1350.338     625.640     802.714
  H     1359.473     620.404     803.937
  H     1353.495     622.818     803.768
  H     1356.969     624.317     804.264
  H     1355.446     624.134     801.583
  H     1355.898     626.506     801.313
  H     1355.266     627.034     804.024
  H     1352.894     626.517     803.553
  H     1356.199     617.270     804.047
  H     1354.678     618.076     803.990
  H     1353.587     627.421     802.201
  P     1357.599     628.145     802.550
  C     1357.187     628.598     805.136
  O     1356.843     628.874     803.731
  O     1357.269     628.613     801.158
  O     1359.155     628.292     802.920
  H     1359.418     627.919     803.768
  H     1356.616     629.276     805.735
  H     1358.248     628.745     805.219
  H     1356.883     627.551     805.334
  H     1352.313     626.905     797.981
  H     1351.801     625.270     798.320
  H     1353.390     625.806     798.807

 3  4  5  6  7  8  9  10  11  12  22  25  29  30  31  32 0
 6-311+G(2d,p)
 ****
 33  36  37 0
 6-311+G(2d,p)
 ****
 1  2  13  14  15  16  17  18  19  20  21  23  24  26 0
 3-21G
 ****
 27  28  34  35  38  39  40  41  42  43  44  45  46  47  48 0
 3-21G
 ****


