%nproc=1
%NoSave
%Mem=1900MB
#P OB98/GEN NMR

erre ene a

0 1
  C      472.968     224.882    -356.019
  O      473.518     224.194    -357.123
  H      473.778     225.375    -355.473
  H      472.472     224.180    -355.347
  H      472.257     225.645    -356.349
  P      472.528     223.553    -358.206
  C      471.402     221.264    -358.580
  O      472.264     222.039    -357.754
  C      471.429     219.803    -358.134
  O      472.734     219.235    -358.368
  C      471.152     219.603    -356.648
  O      469.772     219.750    -356.368
  C      471.703     218.200    -356.445
  O      470.761     217.211    -356.891
  C      472.952     218.225    -357.358
  N      474.196     218.472    -356.625
  C      474.568     217.506    -355.698
  O      473.894     216.506    -355.458
  N      475.751     217.736    -355.041
  C      476.524     218.852    -355.157
  O      477.549     219.034    -354.504
  C      476.062     219.854    -356.127
  C      474.937     219.624    -356.804
  O      472.930     223.720    -359.634
  O      471.127     224.267    -357.903
  H      471.011     216.374    -356.453
  H      470.978     224.985    -358.546
  H      476.032     217.053    -354.356
  H      476.650     220.758    -356.241
  H      474.577     220.355    -357.520
  H      473.055     217.269    -357.887
  H      471.918     217.979    -355.398
  H      471.747     220.305    -356.054
  H      470.707     219.248    -358.745
  H      471.752     221.334    -359.617
  H      470.389     221.670    -358.516
  P      469.264     220.029    -354.877
  C      469.146     218.748    -352.662
  O      469.688     218.768    -353.977
  O      467.832     220.428    -354.754
  O      470.232     221.192    -354.350
  H      469.748     222.039    -354.325
  H      469.487     217.873    -352.149
  H      468.077     218.735    -352.717
  H      469.466     219.620    -352.131

 6  7  8  9  10  11  12  13  14  15  16  26  31  32  33  34  35 0
 6-311+G(2d,p)
 ****
 36  37 0
 6-311+G(2d,p)
 ****
 1  2  3  4  5  17  18  19  20  21  22  23  24  25 0
 3-21G
 ****
 27  28  29  30  38  39  40  41  42  43  44  45 0
 3-21G
 ****


