%nproc=1
%NoSave
%Mem=1900MB
#P OB98/GEN NMR

erre ene a

0 1
  C      215.734       0.594    -157.663
  O      215.243      -0.535    -156.968
  H      216.362       1.179    -156.985
  H      214.906       1.221    -158.005
  H      216.338       0.274    -158.518
  P      214.210      -1.479    -157.755
  C      212.104      -1.066    -159.225
  O      213.021      -0.536    -158.273
  C      210.949      -0.089    -159.420
  O      210.131      -0.054    -158.224
  C      211.385       1.352    -159.653
  O      211.806       1.588    -160.986
  C      210.105       2.098    -159.310
  O      209.209       2.155    -160.426
  C      209.517       1.252    -158.165
  N      209.710       1.891    -156.864
  C      209.293       3.218    -156.780
  O      208.790       3.830    -157.719
  N      209.509       3.836    -155.576
  C      210.137       3.284    -154.494
  O      210.348       3.913    -153.465
  C      210.570       1.886    -154.648
  C      210.345       1.263    -155.811
  O      213.535      -2.335    -156.583
  O      214.822      -2.348    -158.801
  H      213.876      -3.249    -156.602
  H      209.656       2.697    -161.106
  H      209.213       4.793    -155.493
  H      211.071       1.418    -153.810
  H      210.666       0.235    -155.953
  H      208.442       1.098    -158.315
  H      210.320       3.124    -159.015
  H      212.165       1.634    -158.934
  H      210.326      -0.444    -160.252
  H      211.708      -2.020    -158.863
  H      212.634      -1.241    -160.169
  P      213.103       2.508    -161.208
  C      213.490       5.090    -160.881
  O      212.585       4.022    -161.115
  O      213.373       2.262    -162.766
  O      214.235       2.152    -160.304
  H      212.553       2.038    -163.244
  H      212.952       6.014    -160.854
  H      214.215       5.122    -161.668
  H      213.986       4.938    -159.945

 6  7  8  9  10  11  12  13  14  15  16  27  31  32  33  34  35 0
 6-311+G(2d,p)
 ****
 36  37 0
 6-311+G(2d,p)
 ****
 1  2  3  4  5  17  18  19  20  21  22  23  24  25 0
 3-21G
 ****
 26  28  29  30  38  39  40  41  42  43  44  45 0
 3-21G
 ****


