%nproc=1
%NoSave
%Mem=1900MB
#P OB98/GEN NMR

erre ene a

0 1
  C     -365.825      -3.851     -67.993
  O     -365.139      -2.754     -67.395
  P     -365.872      -1.940     -66.225
  C     -365.492       0.679     -66.266
  O     -365.053      -0.610     -65.894
  C     -364.300       1.650     -66.224
  O     -363.445       1.442     -67.368
  C     -364.721       3.117     -66.242
  O     -364.994       3.606     -64.943
  C     -363.523       3.776     -66.898
  O     -362.448       3.920     -65.953
  C     -363.158       2.733     -67.980
  N     -363.854       2.804     -69.282
  C     -363.178       3.275     -70.404
  O     -362.009       3.653     -70.399
  N     -363.892       3.291     -71.575
  C     -365.124       2.743     -71.774
  O     -365.691       2.734     -72.860
  C     -365.733       2.124     -70.594
  C     -365.093       2.191     -69.425
  O     -365.652      -2.853     -64.932
  O     -367.322      -1.666     -66.477
  H     -362.797       4.419     -65.193
  H     -366.508      -3.189     -64.604
  H     -363.442       3.698     -72.382
  H     -366.690       1.632     -70.718
  H     -365.537       1.736     -68.542
  H     -362.082       2.761     -68.196
  H     -363.764       4.783     -67.238
  H     -365.584       3.257     -66.900
  H     -363.715       1.440     -65.322
  H     -366.283       1.028     -65.599
  H     -365.918       0.644     -67.274
  P     -366.285       4.523     -64.692
  C     -364.778       6.577     -64.394
  O     -365.769       5.760     -63.806
  O     -367.497       3.822     -64.180
  O     -366.543       5.206     -66.120
  H     -367.221       4.705     -66.629
  H     -364.633       7.462     -63.766
  H     -365.091       6.901     -65.393
  H     -363.834       6.030     -64.461
  H     -365.208      -4.287     -68.751
  H     -366.738      -3.505     -68.431
  H     -366.044      -4.585     -67.246

 3  4  5  6  7  8  9  10  11  12  13  23  28  29  30  31  32 0
 6-311+G(2d,p)
 ****
 33  34 0
 6-311+G(2d,p)
 ****
 1  2  14  15  16  17  18  19  20  21  22  24  25  26  27 0
 3-21G
 ****
 35  36  37  38  39  40  41  42  43  44  45 0
 3-21G
 ****


