%nproc=1
%NoSave
%Mem=1900MB
#P OB98/GEN NMR

erre ene a

0 1
  C     -857.158    -316.338      54.320
  O     -856.098    -316.410      55.251
  H     -858.106    -316.320      54.861
  H     -857.148    -317.213      53.663
  H     -857.073    -315.425      53.723
  P     -854.619    -316.556      54.664
  C     -854.045    -318.543      56.244
  O     -854.167    -318.076      54.904
  C     -854.659    -319.935      56.352
  O     -855.985    -319.936      55.775
  C     -853.886    -321.015      55.610
  O     -852.746    -321.459      56.319
  C     -854.948    -322.098      55.490
  O     -855.019    -322.913      56.667
  C     -856.243    -321.284      55.307
  N     -856.703    -321.294      53.918
  C     -857.833    -322.074      53.676
  O     -858.418    -322.711      54.545
  N     -858.242    -322.122      52.370
  C     -857.625    -321.535      51.306
  O     -858.016    -321.673      50.154
  C     -856.428    -320.736      51.628
  C     -856.026    -320.663      52.904
  O     -853.727    -315.725      55.701
  O     -854.449    -316.065      53.262
  H     -853.456    -314.878      55.300
  H     -855.718    -323.574      56.498
  H     -859.066    -322.687      52.174
  H     -855.911    -320.250      50.801
  H     -855.134    -320.095      53.159
  H     -857.038    -321.686      55.942
  H     -854.734    -322.755      54.653
  H     -853.623    -320.659      54.600
  H     -854.745    -320.198      57.421
  H     -854.582    -317.867      56.919
  H     -852.990    -318.552      56.524
  P     -851.303    -321.176      55.668
  C     -850.843    -323.760      55.803
  O     -850.815    -322.562      55.038
  O     -850.414    -320.985      56.982
  O     -851.310    -320.006      54.734
  H     -850.784    -321.478      57.741
  H     -850.480    -324.572      55.208
  H     -851.848    -323.964      56.109
  H     -850.223    -323.646      56.667

 6  7  8  9  10  11  12  13  14  15  16  27  31  32  33  34  35 0
 6-311+G(2d,p)
 ****
 36  37 0
 6-311+G(2d,p)
 ****
 1  2  3  4  5  17  18  19  20  21  22  23  24  25 0
 3-21G
 ****
 26  28  29  30  38  39  40  41  42  43  44  45 0
 3-21G
 ****


