%nproc=1
%NoSave
%Mem=1900MB
#P OB98/GEN NMR

erre ene a

0 1
  C      157.330    -279.863    -284.200
  O      158.525    -279.946    -283.411
  P      159.327    -278.660    -282.883
  C      160.818    -276.781    -283.826
  O      160.125    -277.991    -284.106
  C      162.203    -276.755    -284.489
  O      163.130    -277.607    -283.748
  C      162.218    -277.237    -285.957
  O      163.147    -276.396    -286.650
  C      162.743    -278.658    -285.815
  O      163.251    -279.196    -287.021
  C      163.793    -278.441    -284.720
  N      164.309    -279.656    -284.096
  C      165.558    -280.126    -284.520
  O      166.182    -279.572    -285.423
  N      166.078    -281.244    -283.908
  C      165.413    -281.844    -282.977
  N      165.989    -282.936    -282.406
  C      164.089    -281.398    -282.516
  C      163.604    -280.309    -283.109
  O      160.187    -278.939    -281.693
  O      158.201    -277.578    -282.522
  H      158.489    -277.070    -281.739
  H      163.398    -280.152    -286.885
  H      163.569    -281.923    -281.726
  H      162.644    -279.900    -282.807
  H      164.630    -277.855    -285.129
  H      161.924    -279.301    -285.477
  H      161.243    -277.165    -286.446
  H      162.593    -275.735    -284.420
  H      166.908    -283.209    -282.745
  H      160.945    -276.694    -282.745
  H      165.566    -283.475    -281.665
  H      160.216    -275.937    -284.173
  P      162.635    -275.472    -287.852
  C      162.395    -275.742    -290.434
  O      162.653    -276.359    -289.191
  O      163.895    -274.504    -288.088
  O      161.409    -274.661    -287.592
  H      163.591    -273.670    -288.485
  H      163.123    -276.108    -291.164
  H      162.469    -274.653    -290.382
  H      161.392    -276.015    -290.769
  H      156.984    -280.849    -284.428
  H      157.539    -279.340    -285.110
  H      156.576    -279.338    -283.651

 3  4  5  6  7  8  9  10  11  12  13  24  27  28  29  30  32 0
 6-311+G(2d,p)
 ****
 34  35 0
 6-311+G(2d,p)
 ****
 1  2  14  15  16  17  18  19  20  21  22  23  25  26 0
 3-21G
 ****
 31  33  36  37  38  39  40  41  42  43  44  45  46 0
 3-21G
 ****


