%nproc=1
%NoSave
%Mem=1900MB
#P OB98/GEN NMR

erre ene a

0 1
  C       19.574    -235.055     -26.392
  O       18.980    -234.078     -27.216
  P       19.849    -232.862     -27.795
  C       20.639    -234.278     -29.794
  O       21.034    -233.527     -28.651
  C       21.495    -233.891     -30.998
  O       20.989    -232.688     -31.633
  C       22.936    -233.552     -30.651
  O       23.751    -234.593     -30.163
  C       23.391    -232.854     -31.922
  O       23.749    -233.796     -32.933
  C       22.107    -232.086     -32.329
  N       22.216    -230.656     -32.046
  C       23.330    -230.014     -32.572
  O       24.191    -230.583     -33.242
  N       23.446    -228.682     -32.280
  C       22.600    -227.958     -31.491
  O       22.789    -226.776     -31.231
  C       21.450    -228.695     -30.948
  C       21.309    -229.991     -31.243
  O       20.299    -231.863     -26.784
  O       18.908    -232.251     -28.938
  H       24.125    -233.296     -33.682
  H       18.676    -232.873     -29.651
  H       24.253    -228.200     -32.641
  H       20.753    -228.147     -30.327
  H       20.470    -230.556     -30.854
  H       21.913    -232.208     -33.402
  H       24.266    -232.220     -31.748
  H       22.925    -232.792     -29.859
  H       21.433    -234.696     -31.735
  H       19.590    -234.059     -30.018
  H       20.720    -235.347     -29.575
  P       25.076    -234.350     -29.296
  C       24.462    -235.199     -26.924
  O       24.640    -234.088     -27.775
  O       26.103    -233.440     -29.883
  O       25.682    -235.835     -29.213
  H       26.653    -235.779     -29.168
  H       24.125    -234.840     -25.948
  H       25.408    -235.733     -26.792
  H       23.705    -235.874     -27.328
  H       18.838    -235.778     -26.109
  H       19.972    -234.588     -25.515
  H       20.364    -235.540     -26.927

 3  4  5  6  7  8  9  10  11  12  13  23  28  29  30  31  32 0
 6-311+G(2d,p)
 ****
 33  34 0
 6-311+G(2d,p)
 ****
 1  2  14  15  16  17  18  19  20  21  22  24  25  26  27 0
 3-21G
 ****
 35  36  37  38  39  40  41  42  43  44  45 0
 3-21G
 ****


