%nproc=1
%NoSave
%Mem=1900MB
#P OB98/GEN NMR

erre ene a

0 1
  C      -43.754     222.377    -270.280
  O      -43.913     222.428    -268.861
  P      -44.834     223.619    -268.302
  C      -47.091     222.481    -267.735
  O      -46.362     223.264    -268.665
  C      -48.275     221.782    -268.414
  O      -49.299     222.757    -268.778
  C      -47.894     221.031    -269.697
  O      -48.732     219.864    -269.759
  C      -48.278     222.031    -270.777
  O      -48.373     221.456    -272.075
  C      -49.578     222.568    -270.184
  N      -52.931     224.601    -273.448
  C      -52.714     223.324    -273.046
  N      -51.793     222.860    -272.171
  C      -51.054     223.878    -271.685
  C      -51.158     225.225    -272.001
  C      -52.152     225.578    -272.929
  N      -52.365     226.869    -273.352
  N      -50.197     225.954    -271.313
  C      -49.492     225.047    -270.661
  N      -50.024     223.796    -270.790
  O      -44.487     224.847    -269.269
  O      -44.587     223.940    -266.866
  H      -48.882     220.626    -272.032
  H      -43.847     225.445    -268.844
  H      -53.365     222.578    -273.491
  H      -48.602     225.242    -270.088
  H      -50.397     221.843    -270.264
  H      -47.520     222.822    -270.828
  H      -46.846     220.722    -269.735
  H      -48.724     221.086    -267.695
  H      -47.463     223.107    -266.924
  H      -53.102     227.025    -274.023
  H      -51.799     227.623    -272.998
  H      -46.413     221.748    -267.275
  P      -48.148     218.467    -269.230
  C      -49.185     218.690    -266.894
  O      -47.985     218.675    -267.647
  O      -46.619     218.577    -269.716
  O      -48.850     217.235    -269.699
  H      -46.234     219.430    -269.452
  H      -48.929     218.759    -265.836
  H      -49.755     217.773    -267.070
  H      -49.788     219.561    -267.171
  H      -43.126     221.550    -270.539
  H      -43.306     223.286    -270.622
  H      -44.711     222.256    -270.742

 3  4  5  6  7  8  9  10  11  12  22  25  29  30  31  32 0
 6-311+G(2d,p)
 ****
 33  36  37 0
 6-311+G(2d,p)
 ****
 1  2  13  14  15  16  17  18  19  20  21  23  24  26 0
 3-21G
 ****
 27  28  34  35  38  39  40  41  42  43  44  45  46  47  48 0
 3-21G
 ****


