%nproc=1
%NoSave
%Mem=1900MB
#P OB98/GEN NMR

erre ene a

0 1
  C     -771.219    -868.114     336.301
  O     -769.818    -868.058     336.165
  H     -771.622    -868.795     335.550
  H     -771.664    -867.119     336.139
  H     -771.502    -868.475     337.297
  P     -768.987    -867.120     337.160
  C     -767.893    -866.289     334.971
  O     -767.696    -866.643     336.345
  C     -766.546    -865.997     334.315
  O     -765.857    -864.939     335.017
  C     -765.585    -867.189     334.298
  O     -765.910    -868.082     333.235
  C     -764.260    -866.474     334.099
  O     -764.114    -866.076     332.719
  C     -764.438    -865.246     334.999
  N     -760.471    -865.204     338.164
  C     -760.517    -865.039     336.779
  N     -759.332    -864.857     336.158
  N     -761.619    -865.039     336.090
  C     -762.717    -865.291     336.838
  C     -762.792    -865.487     338.201
  C     -761.577    -865.433     338.966
  O     -761.490    -865.543     340.182
  N     -764.087    -865.767     338.591
  C     -764.784    -865.698     337.475
  N     -763.992    -865.416     336.379
  O     -768.677    -867.690     338.513
  O     -769.872    -865.793     337.264
  H     -763.229    -865.653     332.654
  H     -770.495    -865.830     338.016
  H     -759.578    -865.210     338.647
  H     -765.855    -865.833     337.406
  H     -763.913    -864.368     334.608
  H     -763.401    -867.109     334.353
  H     -758.453    -865.143     336.591
  H     -765.566    -867.705     335.268
  H     -759.330    -864.788     335.150
  H     -766.742    -865.647     333.296
  H     -768.528    -865.397     334.955
  H     -768.402    -867.086     334.442
  P     -766.634    -869.493     333.508
  C     -764.731    -870.266     331.970
  O     -766.069    -870.471     332.405
  O     -768.128    -869.411     333.585
  O     -765.951    -870.024     334.840
  H     -766.400    -869.709     335.667
  H     -764.482    -870.995     331.227
  H     -764.066    -870.364     332.803
  H     -764.638    -869.285     331.553

 6  7  8  9  10  11  12  13  14  15  26  29  33  34 0
 6-311+G(2d,p)
 ****
 36  38  39  40  41 0
 6-311+G(2d,p)
 ****
 1  2  3  4  5  16  17  18  19  20  21  22  23  24  25 0
 3-21G
 ****
 27  28  30  31  32  35  37  42  43  44  45  46  47 0
 3-21G
 ****
 48  49 0
 3-21G
 ****


