%nproc=1
%NoSave
%Mem=1900MB
#P OB98/GEN NMR

erre ene a

0 1
  C     1639.884     839.261     427.684
  O     1640.112     840.372     426.840
  H     1639.174     839.552     428.465
  H     1640.812     838.947     428.147
  H     1639.454     838.429     427.111
  P     1640.927     840.121     425.485
  C     1639.042     841.188     424.046
  O     1639.844     840.043     424.309
  C     1638.555     841.158     422.595
  O     1639.720     841.246     421.722
  C     1637.791     839.884     422.213
  O     1636.768     840.259     421.280
  C     1638.825     839.058     421.480
  O     1638.300     838.105     420.598
  C     1639.632     840.154     420.783
  N     1640.955     839.705     420.365
  C     1641.018     838.697     419.393
  O     1640.051     838.240     418.811
  N     1642.274     838.230     419.103
  C     1643.445     838.636     419.694
  O     1644.542     838.161     419.395
  C     1643.305     839.703     420.707
  C     1642.090     840.171     420.992
  O     1641.420     838.600     425.646
  O     1642.051     841.068     425.228
  H     1642.291     838.580     426.092
  H     1639.049     837.609     420.189
  H     1642.340     837.516     418.407
  H     1644.216     840.037     421.208
  H     1641.969     840.939     421.750
  H     1639.088     840.531     419.905
  H     1639.470     838.543     422.218
  H     1637.361     839.344     423.052
  H     1637.957     842.067     422.405
  H     1639.633     842.085     424.203
  H     1638.187     841.174     424.732
  P     1635.579     839.183     421.061
  C     1633.953     841.241     420.959
  O     1634.232     839.952     421.490
  O     1635.842     838.153     422.245
  O     1635.580     838.580     419.693
  H     1636.191     838.586     423.048
  H     1633.023     841.595     421.352
  H     1633.890     841.181     419.893
  H     1634.736     841.917     421.233

 6  7  8  9  10  11  12  13  14  15  16  27  31  32  33  34  35 0
 6-311+G(2d,p)
 ****
 36  37 0
 6-311+G(2d,p)
 ****
 1  2  3  4  5  17  18  19  20  21  22  23  24  25 0
 3-21G
 ****
 26  28  29  30  38  39  40  41  42  43  44  45 0
 3-21G
 ****


