%nproc=1
%NoSave
%Mem=1900MB
#P OB98/GEN NMR

erre ene a

0 1
  C      149.033      86.650     117.704
  O      149.313      86.231     119.026
  H      149.566      87.585     117.512
  H      147.960      86.824     117.587
  H      149.369      85.896     116.986
  P      148.768      84.790     119.461
  C      146.444      83.571     119.323
  O      147.180      84.784     119.211
  C      144.949      83.857     119.208
  O      144.471      84.606     120.343
  C      144.577      84.724     118.016
  O      144.698      84.045     116.786
  C      143.146      85.094     118.380
  O      142.242      84.022     118.081
  C      143.265      85.298     119.912
  N      143.286      86.704     120.288
  C      143.066      86.973     121.645
  O      142.883      86.050     122.441
  N      143.031      88.283     122.060
  C      143.225      89.237     121.202
  N      143.169      90.511     121.675
  C      143.487      88.996     119.769
  C      143.497      87.722     119.385
  O      148.875      84.841     121.055
  O      149.465      83.627     118.831
  H      141.340      84.391     118.169
  H      148.430      85.609     121.452
  H      143.650      89.822     119.092
  H      143.680      87.456     118.353
  H      142.425      84.817     120.431
  H      142.795      85.970     117.831
  H      145.173      85.645     118.018
  H      144.419      82.894     119.185
  H      142.967      90.639     122.659
  H      146.670      83.062     120.264
  H      143.270      91.334     121.095
  H      146.766      82.914     118.508
  P      145.453      84.730     115.548
  C      145.077      87.003     114.398
  O      144.461      85.860     114.984
  O      145.964      83.782     114.513
  O      146.597      85.604     116.253
  H      146.269      86.285     116.868
  H      144.322      87.682     114.061
  H      145.679      86.698     113.568
  H      145.693      87.488     115.126

 6  7  8  9  10  11  12  13  14  15  16  26  30  31  32  33  35 0
 6-311+G(2d,p)
 ****
 37  38 0
 6-311+G(2d,p)
 ****
 1  2  3  4  5  17  18  19  20  21  22  23  24  25 0
 3-21G
 ****
 27  28  29  34  36  39  40  41  42  43  44  45  46 0
 3-21G
 ****


