%nproc=1
%NoSave
%Mem=1900MB
#P OB98/GEN NMR

erre ene a

0 1
  C     -336.749     629.216      61.668
  O     -336.256     628.193      60.825
  H     -337.610     628.849      62.238
  H     -335.963     629.505      62.368
  H     -337.037     630.089      61.077
  P     -337.285     627.620      59.732
  C     -337.575     625.615      61.346
  O     -338.216     626.547      60.490
  C     -338.601     624.649      61.936
  O     -339.108     623.813      60.861
  C     -338.041     623.728      63.034
  O     -338.883     623.759      64.196
  C     -338.110     622.336      62.425
  O     -338.395     621.326      63.382
  C     -339.216     622.483      61.385
  N     -339.285     617.485      60.379
  C     -339.790     618.196      61.414
  N     -339.826     619.536      61.572
  C     -339.295     620.154      60.503
  C     -338.760     619.568      59.365
  C     -338.753     618.165      59.333
  N     -338.186     617.438      58.306
  N     -338.299     620.530      58.487
  C     -338.509     621.679      59.106
  N     -339.095     621.501      60.332
  O     -336.350     626.709      58.797
  O     -338.001     628.663      58.942
  H     -339.063     621.689      63.991
  H     -336.377     627.071      57.889
  H     -340.214     617.612      62.224
  H     -338.223     622.656      58.731
  H     -340.213     622.380      61.837
  H     -337.147     622.111      61.948
  H     -337.017     623.986      63.322
  H     -339.452     625.232      62.320
  H     -337.075     626.150      62.166
  H     -338.118     616.441      58.418
  H     -337.688     617.937      57.586
  H     -336.818     625.066      60.772
  P     -338.366     624.664      65.422
  C     -337.021     623.387      67.254
  O     -336.996     624.020      65.969
  O     -339.431     624.356      66.577
  O     -338.302     626.123      65.111
  H     -339.837     625.189      66.884
  H     -336.047     623.008      67.484
  H     -337.723     622.580      67.240
  H     -337.311     624.100      67.997

 6  7  8  9  10  11  12  13  14  15  25  28  32  33  34  35 0
 6-311+G(2d,p)
 ****
 36  39  40 0
 6-311+G(2d,p)
 ****
 1  2  3  4  5  16  17  18  19  20  21  22  23  24 0
 3-21G
 ****
 26  27  29  30  31  37  38  41  42  43  44  45  46  47  48 0
 3-21G
 ****


