%nproc=1
%NoSave
%Mem=1900MB
#P OB98/GEN NMR

erre ene a

0 1
  C     -209.157     -99.165     240.918
  O     -210.318     -98.436     241.267
  H     -208.787     -99.678     241.810
  H     -208.379     -98.486     240.552
  H     -209.397     -99.912     240.156
  P     -211.003     -97.575     240.097
  C     -209.865     -95.513     241.177
  O     -210.093     -96.258     239.988
  C     -208.418     -95.039     241.243
  O     -207.519     -96.158     241.130
  C     -208.026     -94.058     240.143
  O     -208.414     -92.742     240.486
  C     -206.510     -94.213     240.143
  O     -205.945     -93.424     241.207
  C     -206.321     -95.712     240.442
  N     -203.003     -98.779     238.005
  C     -202.846     -97.945     239.053
  N     -203.754     -97.120     239.613
  C     -204.941     -97.213     238.986
  C     -205.250     -98.022     237.897
  C     -204.216     -98.837     237.404
  N     -204.379     -99.686     236.328
  N     -206.564     -97.851     237.514
  C     -207.053     -97.005     238.395
  N     -206.104     -96.563     239.285
  O     -212.474     -97.353     240.235
  O     -210.559     -98.411     238.805
  H     -206.511     -93.560     241.992
  H     -209.638     -98.707     238.890
  H     -201.857     -97.938     239.500
  H     -208.091     -96.691     238.450
  H     -205.471     -95.883     241.118
  H     -206.055     -93.870     239.214
  H     -208.420     -94.370     239.165
  H     -208.254     -94.589     242.234
  H     -210.095     -96.129     242.059
  H     -203.545    -100.080     235.927
  H     -205.242     -99.626     235.808
  H     -210.549     -94.655     241.170
  P     -209.544     -91.964     239.657
  C     -207.663     -90.301     239.097
  O     -208.737     -91.081     238.584
  O     -210.533     -91.226     240.493
  O     -210.218     -93.099     238.756
  H     -211.082     -92.785     238.412
  H     -207.202     -89.759     238.298
  H     -206.941     -90.945     239.554
  H     -208.038     -89.613     239.825

 6  7  8  9  10  11  12  13  14  15  25  28  32  33  34  35 0
 6-311+G(2d,p)
 ****
 36  39  40 0
 6-311+G(2d,p)
 ****
 1  2  3  4  5  16  17  18  19  20  21  22  23  24 0
 3-21G
 ****
 26  27  29  30  31  37  38  41  42  43  44  45  46  47 0
 3-21G
 ****
 48 0
 3-21G
 ****


