%nproc=1
%NoSave
%Mem=1900MB
#P OB98/GEN NMR

erre ene a

0 1
  C     -821.554     816.165     -17.006
  O     -822.536     816.155     -15.986
  H     -820.623     815.739     -16.627
  H     -821.908     815.554     -17.839
  H     -821.381     817.185     -17.364
  P     -822.291     817.134     -14.739
  C     -824.609     818.310     -14.848
  O     -823.202     818.430     -15.016
  C     -825.214     819.656     -14.448
  O     -824.558     820.121     -13.239
  C     -825.046     820.745     -15.514
  O     -826.231     821.540     -15.552
  C     -823.881     821.570     -15.000
  O     -823.901     822.903     -15.494
  C     -824.077     821.456     -13.491
  N     -821.835     824.349      -9.931
  C     -823.109     824.279     -10.369
  N     -823.628     823.476     -11.315
  C     -822.685     822.641     -11.799
  C     -821.349     822.594     -11.452
  C     -820.920     823.508     -10.470
  N     -819.613     823.610     -10.045
  N     -820.688     821.629     -12.192
  C     -821.619     821.105     -12.968
  N     -822.838     821.691     -12.770
  O     -820.799     817.662     -15.004
  O     -822.434     816.519     -13.390
  H     -824.791     823.279     -15.336
  H     -820.163     816.983     -14.713
  H     -823.805     824.970      -9.895
  H     -821.460     820.320     -13.690
  H     -824.815     822.172     -13.107
  H     -822.934     821.107     -15.306
  H     -824.851     820.333     -16.511
  H     -826.270     819.505     -14.197
  H     -824.814     817.571     -14.070
  H     -819.386     824.332      -9.385
  H     -818.909     823.038     -10.484
  H     -825.057     817.969     -15.790
  P     -827.278     821.224     -16.725
  C     -829.460     820.676     -15.439
  O     -828.358     820.172     -16.175
  O     -826.418     820.373     -17.773
  O     -827.851     822.450     -17.366
  H     -826.523     820.737     -18.672
  H     -830.090     819.865     -15.140
  H     -830.018     821.354     -16.051
  H     -829.104     821.190     -14.571

 6  7  8  9  10  11  12  13  14  15  25  28  32  33  34  35 0
 6-311+G(2d,p)
 ****
 36  39  40 0
 6-311+G(2d,p)
 ****
 1  2  3  4  5  16  17  18  19  20  21  22  23  24 0
 3-21G
 ****
 26  27  29  30  31  37  38  41  42  43  44  45  46  47 0
 3-21G
 ****
 48 0
 3-21G
 ****


