%nproc=1
%NoSave
%Mem=1900MB
#P OB98/GEN NMR

erre ene a

0 1
  C     -604.819     340.823    -854.737
  O     -603.554     341.270    -854.297
  H     -605.101     341.373    -855.635
  H     -605.570     341.018    -853.962
  H     -604.793     339.753    -854.968
  P     -602.775     340.355    -853.247
  C     -601.418     342.235    -852.056
  O     -601.380     341.104    -852.930
  C     -600.130     343.044    -852.212
  O     -599.024     342.281    -851.657
  C     -599.775     343.416    -853.652
  O     -599.196     344.723    -853.669
  C     -598.686     342.411    -853.991
  O     -597.841     342.861    -855.055
  C     -597.976     342.299    -852.641
  N     -593.277     340.684    -853.385
  C     -593.790     341.967    -853.332
  N     -592.923     342.976    -853.579
  N     -595.041     342.228    -853.074
  C     -595.783     341.122    -852.829
  C     -595.401     339.803    -852.841
  C     -594.021     339.523    -853.159
  O     -593.516     338.398    -853.223
  N     -596.476     338.976    -852.596
  C     -597.512     339.805    -852.459
  N     -597.148     341.109    -852.582
  O     -602.323     339.106    -854.143
  O     -603.554     339.928    -852.052
  H     -597.257     342.120    -855.317
  H     -602.976     338.380    -854.055
  H     -592.305     340.520    -853.617
  H     -598.535     339.490    -852.276
  H     -597.317     343.165    -852.442
  H     -599.130     341.461    -854.282
  H     -591.944     342.841    -853.776
  H     -600.625     343.362    -854.348
  H     -593.285     343.923    -853.520
  H     -600.223     343.964    -851.601
  H     -601.517     341.888    -851.023
  H     -602.298     342.848    -852.307
  P     -600.142     345.954    -854.120
  C     -598.720     347.841    -855.237
  O     -599.278     347.311    -854.044
  O     -601.159     346.086    -852.875
  O     -600.869     345.732    -855.398
  H     -602.029     346.362    -853.205
  H     -598.181     348.737    -855.011
  H     -599.505     348.062    -855.930
  H     -598.054     347.123    -855.669

 6  7  8  9  10  11  12  13  14  15  26  29  33  34 0
 6-311+G(2d,p)
 ****
 36  38  39  40  41 0
 6-311+G(2d,p)
 ****
 1  2  3  4  5  16  17  18  19  20  21  22  23  24  25 0
 3-21G
 ****
 27  28  30  31  32  35  37  42  43  44  45  46  47 0
 3-21G
 ****
 48  49 0
 3-21G
 ****


