%nproc=1
%NoSave
%Mem=1900MB
#P OB98/GEN NMR

erre ene a

0 1
  C       39.988    -211.044    -362.099
  O       40.240    -211.481    -363.436
  P       39.424    -212.622    -364.197
  C       37.411    -211.082    -364.893
  O       38.477    -211.936    -365.284
  C       36.609    -210.598    -366.115
  O       37.545    -210.084    -367.114
  C       35.816    -211.728    -366.786
  O       34.502    -211.346    -367.184
  C       36.760    -212.211    -367.875
  O       36.109    -212.941    -368.900
  C       37.444    -210.913    -368.297
  N       40.127    -212.924    -372.151
  C       38.788    -213.078    -371.843
  N       38.065    -213.878    -372.655
  N       38.212    -212.506    -370.821
  C       39.061    -211.788    -370.047
  C       40.408    -211.583    -370.237
  C       41.025    -212.180    -371.400
  O       42.208    -212.061    -371.731
  N       40.938    -210.792    -369.244
  C       39.917    -210.546    -368.443
  N       38.754    -211.123    -368.894
  O       38.808    -213.670    -363.333
  O       40.548    -213.345    -365.107
  H       36.783    -213.209    -369.556
  H       40.284    -214.289    -365.172
  H       40.514    -213.373    -372.966
  H       39.964    -209.945    -367.539
  H       36.863    -210.364    -369.038
  H       37.483    -212.893    -367.405
  H       38.469    -214.445    -373.385
  H       35.634    -212.549    -366.075
  H       37.150    -214.161    -372.303
  H       35.956    -209.775    -365.803
  H       37.877    -210.228    -364.394
  H       36.764    -211.576    -364.168
  P       33.185    -212.248    -367.292
  C       32.305    -212.117    -364.884
  O       32.114    -211.714    -366.225
  O       33.607    -213.670    -366.692
  O       32.656    -212.406    -368.680
  H       33.519    -214.356    -367.381
  H       31.385    -211.922    -364.322
  H       33.121    -211.546    -364.438
  H       32.531    -213.189    -364.832
  H       40.680    -210.270    -361.840
  H       40.106    -211.868    -361.426
  H       38.989    -210.667    -362.029

 3  4  5  6  7  8  9  10  11  12  23  26  30  31 0
 6-311+G(2d,p)
 ****
 33  35  36  37  38 0
 6-311+G(2d,p)
 ****
 1  2  13  14  15  16  17  18  19  20  21  22  24  25 0
 3-21G
 ****
 27  28  29  32  34  39  40  41  42  43  44  45  46  47  48  49 0
 3-21G
 ****


