%nproc=1
%NoSave
%Mem=1900MB
#P OB98/GEN NMR

erre ene a

0 1
  C     -191.734     318.491     -71.265
  O     -192.371     317.610     -72.170
  H     -191.428     317.922     -70.384
  H     -192.422     319.280     -70.950
  H     -190.845     318.931     -71.723
  P     -192.955     318.210     -73.534
  C     -190.697     318.069     -74.780
  O     -191.721     318.917     -74.276
  C     -189.789     318.843     -75.730
  O     -188.753     317.986     -76.247
  C     -190.506     319.431     -76.946
  O     -191.151     320.647     -76.604
  C     -189.332     319.636     -77.887
  O     -188.592     320.808     -77.490
  C     -188.493     318.372     -77.625
  N     -186.722     315.308     -81.261
  C     -186.162     316.445     -80.711
  N     -184.976     316.837     -81.223
  N     -186.719     317.140     -79.754
  C     -187.934     316.670     -79.388
  C     -188.600     315.567     -79.872
  C     -187.942     314.768     -80.884
  O     -188.393     313.740     -81.381
  N     -189.854     315.458     -79.325
  C     -189.924     316.463     -78.476
  N     -188.786     317.237     -78.482
  O     -194.167     319.083     -73.404
  O     -193.236     316.923     -74.442
  H     -189.044     321.578     -77.881
  H     -194.152     316.607     -74.332
  H     -186.250     314.818     -82.002
  H     -190.768     316.676     -77.831
  H     -187.418     318.567     -77.715
  H     -189.641     319.785     -78.923
  H     -184.572     316.433     -82.055
  H     -191.197     318.709     -77.391
  H     -184.579     317.701     -80.873
  H     -189.292     319.632     -75.150
  H     -191.184     317.242     -75.305
  H     -190.102     317.657     -73.958
  P     -191.994     321.482     -77.688
  C     -194.355     320.768     -76.911
  O     -193.350     320.652     -77.901
  O     -191.256     321.804     -78.942
  O     -192.510     322.761     -76.885
  H     -191.849     323.497     -76.865
  H     -195.195     320.164     -77.183
  H     -194.661     321.790     -76.832
  H     -193.968     320.437     -75.970

 6  7  8  9  10  11  12  13  14  15  26  29  33  34 0
 6-311+G(2d,p)
 ****
 36  38  39  40  41 0
 6-311+G(2d,p)
 ****
 1  2  3  4  5  16  17  18  19  20  21  22  23  24  25 0
 3-21G
 ****
 27  28  30  31  32  35  37  42  43  44  45  46  47 0
 3-21G
 ****
 48  49 0
 3-21G
 ****


