%nproc=1
%NoSave
%Mem=1900MB
#P OB98/GEN NMR

erre ene a

0 1
  C      702.892    -319.872    -176.743
  O      701.489    -320.076    -176.643
  H      703.077    -319.041    -177.428
  H      703.378    -320.770    -177.126
  H      703.300    -319.614    -175.759
  P      701.005    -321.278    -175.702
  C      698.998    -320.029    -174.673
  O      699.415    -321.058    -175.562
  C      697.612    -319.498    -175.081
  O      697.705    -318.972    -176.433
  C      696.531    -320.584    -175.066
  O      695.307    -320.004    -174.578
  C      696.367    -320.952    -176.532
  O      695.078    -321.483    -176.823
  C      696.683    -319.624    -177.223
  N      695.237    -320.040    -182.105
  C      694.552    -319.709    -180.986
  N      695.025    -319.605    -179.728
  C      696.346    -319.838    -179.688
  C      697.178    -320.203    -180.748
  C      696.555    -320.310    -182.003
  N      697.238    -320.678    -183.143
  N      698.473    -320.407    -180.302
  C      698.433    -320.166    -178.996
  N      697.168    -319.832    -178.582
  O      701.744    -321.443    -174.418
  O      701.087    -322.524    -176.711
  H      695.021    -322.370    -176.424
  H      700.730    -322.309    -177.587
  H      693.495    -319.494    -181.120
  H      699.280    -320.230    -178.318
  H      695.811    -318.971    -177.280
  H      697.115    -321.717    -176.803
  H      696.801    -321.442    -174.449
  H      697.349    -318.654    -174.427
  H      699.721    -319.204    -174.694
  H      696.720    -320.715    -184.018
  H      698.230    -320.853    -183.091
  H      698.966    -320.443    -173.665
  P      694.199    -320.976    -173.940
  C      694.013    -320.275    -171.456
  O      693.449    -320.183    -172.767
  O      694.668    -322.356    -173.597
  O      693.084    -321.029    -175.092
  H      692.710    -321.931    -175.126
  H      693.420    -319.704    -170.772
  H      695.012    -319.891    -171.470
  H      694.029    -321.299    -171.146

 6  7  8  9  10  11  12  13  14  15  25  28  32  33  34  35 0
 6-311+G(2d,p)
 ****
 36  39  40 0
 6-311+G(2d,p)
 ****
 1  2  3  4  5  16  17  18  19  20  21  22  23  24 0
 3-21G
 ****
 26  27  29  30  31  37  38  41  42  43  44  45  46  47 0
 3-21G
 ****
 48 0
 3-21G
 ****


