%nproc=1
%NoSave
%Mem=1900MB
#P OB98/GEN NMR

erre ene a

0 1
  C      -45.342     -21.476     110.791
  O      -43.938     -21.231     110.804
  P      -42.942     -22.474     110.634
  C      -42.217     -24.533     112.129
  O      -43.115     -23.478     111.862
  C      -42.110     -24.734     113.650
  O      -41.275     -23.711     114.233
  C      -43.458     -24.672     114.363
  O      -44.111     -25.928     114.376
  C      -43.060     -24.182     115.741
  O      -42.508     -25.261     116.517
  C      -41.960     -23.151     115.390
  N      -42.377     -21.770     115.068
  C      -42.182     -20.753     115.999
  O      -41.678     -20.917     117.107
  N      -42.581     -19.500     115.614
  C      -42.985     -19.130     114.364
  O      -43.273     -17.980     114.060
  C      -43.032     -20.213     113.376
  C      -42.745     -21.456     113.766
  O      -41.496     -21.836     110.861
  O      -43.046     -23.171     109.313
  H      -42.247     -24.892     117.378
  H      -40.966     -21.894     110.044
  H      -42.514     -18.764     116.301
  H      -43.301     -19.957     112.359
  H      -42.777     -22.266     113.041
  H      -41.228     -23.078     116.202
  H      -43.923     -23.820     116.296
  H      -44.091     -23.907     113.905
  H      -41.635     -25.706     113.838
  H      -41.230     -24.322     111.711
  H      -42.575     -25.450     111.650
  P      -45.531     -26.096     113.656
  C      -47.955     -25.667     114.378
  O      -46.592     -25.372     114.620
  O      -45.889     -27.478     113.224
  O      -45.444     -25.082     112.415
  H      -45.176     -25.557     111.596
  H      -48.554     -25.246     115.190
  H      -48.114     -26.748     114.343
  H      -48.270     -25.215     113.434
  H      -45.867     -20.552     110.915
  H      -45.596     -22.140     111.591
  H      -45.618     -21.921     109.858

 3  4  5  6  7  8  9  10  11  12  13  23  28  29  30  31  32 0
 6-311+G(2d,p)
 ****
 33  34 0
 6-311+G(2d,p)
 ****
 1  2  14  15  16  17  18  19  20  21  22  24  25  26  27 0
 3-21G
 ****
 35  36  37  38  39  40  41  42  43  44  45 0
 3-21G
 ****


