%nproc=1
%NoSave
%Mem=1900MB
#P OB98/GEN NMR

erre ene a

0 1
  C     -166.095    -174.930     -13.906
  O     -166.666    -174.650     -15.169
  H     -165.064    -175.262     -14.054
  H     -166.648    -175.722     -13.396
  H     -166.084    -174.026     -13.289
  P     -168.227    -174.295     -15.250
  C     -168.484    -171.740     -15.048
  O     -168.330    -172.844     -15.929
  C     -167.567    -170.584     -15.458
  O     -166.199    -171.070     -15.487
  C     -167.896    -170.000     -16.837
  O     -167.692    -168.583     -16.786
  C     -166.863    -170.655     -17.729
  O     -166.627    -169.897     -18.901
  C     -165.659    -170.791     -16.793
  N     -164.751    -171.847     -17.247
  C     -163.776    -171.474     -18.181
  O     -163.703    -170.304     -18.569
  N     -162.952    -172.438     -18.702
  C     -163.120    -173.679     -18.369
  N     -162.297    -174.589     -18.953
  C     -164.154    -174.124     -17.409
  C     -164.924    -173.165     -16.890
  O     -169.003    -174.447     -13.983
  O     -168.777    -175.272     -16.396
  H     -166.333    -168.994     -18.650
  H     -169.083    -176.110     -16.001
  H     -164.257    -175.172     -17.167
  H     -165.715    -173.399     -16.185
  H     -165.100    -169.848     -16.735
  H     -167.219    -171.648     -18.038
  H     -168.917    -170.218     -17.162
  H     -167.612    -169.808     -14.680
  H     -161.620    -174.240     -19.623
  H     -168.223    -172.074     -14.038
  H     -162.359    -175.587     -18.803
  H     -169.528    -171.406     -15.047
  P     -168.922    -167.571     -16.985
  C     -170.179    -167.705     -14.756
  O     -169.298    -166.922     -15.561
  O     -170.082    -168.138     -17.736
  O     -168.280    -166.339     -17.787
  H     -168.963    -165.929     -18.353
  H     -170.369    -167.194     -13.835
  H     -169.727    -168.653     -14.551
  H     -171.101    -167.855     -15.278

 6  7  8  9  10  11  12  13  14  15  16  26  30  31  32  33  35 0
 6-311+G(2d,p)
 ****
 37  38 0
 6-311+G(2d,p)
 ****
 1  2  3  4  5  17  18  19  20  21  22  23  24  25 0
 3-21G
 ****
 27  28  29  34  36  39  40  41  42  43  44  45  46 0
 3-21G
 ****


