%nproc=1
%NoSave
%Mem=1900MB
#P OB98/GEN NMR

erre ene a

0 1
  C      -70.724    -622.175    -154.538
  O      -69.396    -621.812    -154.215
  P      -68.885    -621.913    -152.697
  C      -69.114    -620.428    -150.578
  O      -69.527    -620.686    -151.901
  C      -69.914    -619.275    -149.958
  O      -71.320    -619.637    -149.988
  C      -69.593    -618.977    -148.494
  O      -70.057    -617.668    -148.178
  C      -70.433    -620.011    -147.782
  O      -70.664    -619.670    -146.412
  C      -71.708    -620.093    -148.669
  N      -72.241    -621.464    -148.734
  C      -73.620    -621.595    -148.689
  O      -74.388    -620.628    -148.672
  N      -74.098    -622.871    -148.579
  C      -73.326    -623.987    -148.459
  O      -73.741    -625.074    -148.051
  C      -71.890    -623.814    -148.752
  C      -71.411    -622.569    -148.851
  O      -67.331    -621.527    -152.828
  O      -69.066    -623.255    -152.067
  H      -71.419    -620.228    -146.108
  H      -66.783    -622.327    -152.878
  H      -75.090    -622.960    -148.396
  H      -71.265    -624.699    -148.817
  H      -70.353    -622.398    -149.014
  H      -72.497    -619.429    -148.290
  H      -69.909    -620.975    -147.790
  H      -68.530    -619.075    -148.244
  H      -69.779    -618.373    -150.569
  H      -68.040    -620.199    -150.579
  H      -69.246    -621.325    -149.962
  P      -69.682    -617.056    -146.742
  C      -70.610    -617.296    -144.361
  O      -70.642    -617.799    -145.678
  O      -69.646    -615.577    -146.647
  O      -68.249    -617.710    -146.438
  H      -67.792    -617.199    -145.745
  H      -71.591    -617.474    -143.898
  H      -70.399    -616.209    -144.339
  H      -69.845    -617.821    -143.782
  H      -70.884    -622.044    -155.588
  H      -71.406    -621.556    -153.993
  H      -70.887    -623.200    -154.277

 3  4  5  6  7  8  9  10  11  12  13  23  28  29  30  31  32 0
 6-311+G(2d,p)
 ****
 33  34 0
 6-311+G(2d,p)
 ****
 1  2  14  15  16  17  18  19  20  21  22  24  25  26  27 0
 3-21G
 ****
 35  36  37  38  39  40  41  42  43  44  45 0
 3-21G
 ****


