%nproc=1
%NoSave
%Mem=1900MB
#P OB98/GEN NMR

erre ene a

0 1
  C      106.366     114.676    -391.940
  O      105.658     115.896    -392.007
  H      106.918     114.539    -392.869
  H      105.668     113.844    -391.818
  H      107.073     114.694    -391.105
  P      104.786     116.315    -390.724
  C      102.436     115.611    -389.830
  O      103.411     115.486    -390.867
  C      101.062     115.147    -390.334
  O      100.653     115.999    -391.443
  C      101.049     113.695    -390.833
  O       99.865     113.051    -390.367
  C      101.037     113.822    -392.347
  O      100.438     112.692    -392.976
  C      100.295     115.149    -392.554
  N      100.637     115.779    -393.830
  C       99.738     115.580    -394.900
  O       98.728     114.898    -394.728
  N      100.038     116.116    -396.122
  C      101.165     116.741    -396.299
  N      101.417     117.224    -397.546
  C      102.157     116.933    -395.223
  C      101.833     116.441    -394.030
  O      104.358     117.824    -391.053
  O      105.471     116.150    -389.411
  H       99.458     112.796    -392.910
  H      104.001     118.281    -390.254
  H      103.088     117.445    -395.418
  H      102.500     116.533    -393.176
  H       99.200     115.008    -392.523
  H      102.058     113.909    -392.721
  H      101.922     113.128    -390.498
  H      100.331     115.300    -389.531
  H      100.724     117.065    -398.258
  H      102.388     116.656    -389.514
  H      102.271     117.705    -397.796
  H      102.741     114.990    -388.979
  P      100.097     111.781    -389.405
  C      100.709     109.278    -389.697
  O      100.448     110.524    -390.338
  O       98.621     111.456    -388.854
  O      101.073     112.038    -388.308
  H       98.509     111.835    -387.952
  H      100.927     108.535    -390.436
  H       99.849     108.980    -389.134
  H      101.547     109.384    -389.040

 6  7  8  9  10  11  12  13  14  15  16  26  30  31  32  33  35 0
 6-311+G(2d,p)
 ****
 37  38 0
 6-311+G(2d,p)
 ****
 1  2  3  4  5  17  18  19  20  21  22  23  24  25 0
 3-21G
 ****
 27  28  29  34  36  39  40  41  42  43  44  45  46 0
 3-21G
 ****


