%nproc=1
%NoSave
%Mem=1900MB
#P OB98/GEN NMR

erre ene a

0 1
  C      438.498    -421.965    -506.750
  O      439.728    -422.687    -506.700
  P      440.846    -422.430    -507.814
  C      440.296    -424.165    -509.655
  O      440.252    -422.799    -509.259
  C      439.397    -424.385    -510.878
  O      438.010    -424.087    -510.576
  C      439.747    -423.464    -512.037
  O      440.980    -423.702    -512.692
  C      438.484    -423.518    -512.880
  O      438.459    -424.662    -513.733
  C      437.379    -423.626    -511.796
  N      436.681    -422.361    -511.578
  C      435.338    -422.338    -511.954
  O      434.766    -423.290    -512.483
  N      434.679    -421.158    -511.728
  C      435.221    -420.014    -511.220
  O      434.586    -418.974    -511.066
  C      436.651    -420.094    -510.860
  C      437.303    -421.244    -511.060
  O      442.197    -422.989    -507.520
  O      440.912    -420.820    -507.867
  H      437.665    -424.582    -514.297
  H      441.855    -420.568    -507.951
  H      433.701    -421.123    -512.000
  H      437.121    -419.197    -510.456
  H      438.358    -421.316    -510.800
  H      436.646    -424.381    -512.075
  H      438.394    -422.635    -513.528
  H      439.822    -422.438    -511.641
  H      439.455    -425.440    -511.166
  H      439.968    -424.797    -508.826
  H      441.332    -424.440    -509.866
  P      442.384    -423.209    -512.128
  C      442.137    -420.775    -513.005
  O      442.316    -421.622    -511.889
  O      443.620    -423.741    -512.792
  O      442.338    -423.770    -510.619
  H      443.250    -424.009    -510.348
  H      442.133    -419.736    -512.650
  H      441.178    -420.990    -513.494
  H      442.960    -420.902    -513.711
  H      437.876    -422.264    -505.932
  H      437.999    -422.174    -507.673
  H      438.697    -420.916    -506.682

 3  4  5  6  7  8  9  10  11  12  13  23  28  29  30  31  32 0
 6-311+G(2d,p)
 ****
 33  34 0
 6-311+G(2d,p)
 ****
 1  2  14  15  16  17  18  19  20  21  22  24  25  26  27 0
 3-21G
 ****
 35  36  37  38  39  40  41  42  43  44  45 0
 3-21G
 ****


