%nproc=1
%NoSave
%Mem=1900MB
#P OB98/GEN NMR

erre ene a

0 1
  C      485.759    -327.598    1135.485
  O      485.709    -328.092    1134.158
  H      486.788    -327.627    1135.857
  H      485.404    -326.563    1135.493
  H      485.111    -328.201    1136.130
  P      486.222    -329.583    1133.915
  C      484.035    -330.975    1133.996
  O      485.203    -330.560    1134.677
  C      484.281    -332.293    1133.261
  O      484.680    -333.281    1134.247
  C      483.064    -332.839    1132.491
  O      483.397    -333.010    1131.107
  C      482.813    -334.212    1133.106
  O      482.474    -335.203    1132.135
  C      484.129    -334.536    1133.802
  N      483.388    -339.408    1135.070
  C      483.930    -338.862    1133.976
  N      484.198    -337.557    1133.731
  C      483.871    -336.800    1134.801
  C      483.339    -337.234    1136.009
  C      483.070    -338.608    1136.109
  N      482.469    -339.172    1137.219
  N      483.132    -336.160    1136.868
  C      483.485    -335.105    1136.182
  N      483.933    -335.444    1134.920
  O      487.556    -329.670    1134.795
  O      486.486    -329.944    1132.491
  H      481.568    -334.996    1131.826
  H      488.284    -330.057    1134.267
  H      484.175    -339.540    1133.168
  H      483.415    -334.078    1136.512
  H      484.855    -334.992    1133.109
  H      482.003    -334.130    1133.839
  H      482.175    -332.198    1132.587
  H      485.135    -332.157    1132.587
  H      483.761    -330.205    1133.255
  H      482.218    -340.149    1137.176
  H      482.130    -338.569    1137.953
  H      483.209    -331.069    1134.711
  P      482.492    -332.210    1130.043
  C      484.358    -330.482    1129.478
  O      483.049    -330.711    1129.989
  O      481.091    -332.054    1130.811
  O      482.340    -332.888    1128.734
  H      480.372    -331.982    1130.168
  H      484.576    -329.435    1129.511
  H      484.411    -330.826    1128.466
  H      485.071    -331.013    1130.073

 6  7  8  9  10  11  12  13  14  15  25  28  32  33  34  35 0
 6-311+G(2d,p)
 ****
 36  39  40 0
 6-311+G(2d,p)
 ****
 1  2  3  4  5  16  17  18  19  20  21  22  23  24 0
 3-21G
 ****
 26  27  29  30  31  37  38  41  42  43  44  45  46  47  48 0
 3-21G
 ****


