%nproc=1
%NoSave
%Mem=1900MB
#P OB98/GEN NMR

erre ene a

0 1
  C      898.028     145.023     -48.066
  O      899.164     144.315     -48.536
  P      899.202     143.680     -50.013
  C      898.729     141.324     -49.098
  O      898.269     142.373     -49.922
  C      897.708     140.174     -49.078
  O      896.449     140.701     -48.568
  C      897.359     139.566     -50.438
  O      898.272     138.572     -50.878
  C      896.008     138.934     -50.124
  O      896.214     137.688     -49.427
  C      895.364     139.971     -49.200
  N      890.842     140.542     -51.521
  C      891.398     139.495     -50.865
  N      892.618     139.420     -50.307
  C      893.271     140.590     -50.399
  C      892.835     141.733     -51.020
  C      891.541     141.694     -51.613
  N      890.968     142.777     -52.259
  N      893.786     142.736     -50.960
  C      894.780     142.192     -50.276
  N      894.514     140.899     -49.911
  O      900.567     143.459     -50.555
  O      898.328     144.700     -50.897
  H      895.347     137.376     -49.126
  H      898.509     144.552     -51.842
  H      890.794     138.585     -50.809
  H      895.693     142.696     -50.024
  H      894.784     139.510     -48.399
  H      895.436     138.690     -51.039
  H      897.226     140.349     -51.203
  H      898.058     139.406     -48.378
  H      898.852     141.708     -48.072
  H      889.994     142.678     -52.517
  H      891.414     143.669     -52.179
  H      899.696     140.971     -49.449
  P      898.309     138.247     -52.459
  C      897.001     135.991     -52.048
  O      897.070     137.245     -52.715
  O      899.616     137.760     -52.963
  O      897.816     139.615     -53.114
  H      896.884     139.865     -52.933
  H      896.029     135.546     -52.243
  H      897.142     136.120     -50.981
  H      897.780     135.324     -52.456
  H      898.207     145.361     -47.067
  H      897.175     144.377     -48.077
  H      897.845     145.865     -48.700

 3  4  5  6  7  8  9  10  11  12  22  25  29  30  31  32 0
 6-311+G(2d,p)
 ****
 33  36  37 0
 6-311+G(2d,p)
 ****
 1  2  13  14  15  16  17  18  19  20  21  23  24  26 0
 3-21G
 ****
 27  28  34  35  38  39  40  41  42  43  44  45  46  47  48 0
 3-21G
 ****


