%nproc=1
%NoSave
%Mem=1900MB
#P OB98/GEN NMR

erre ene a

0 1
  C      788.760    -893.620     305.039
  O      787.555    -893.730     304.275
  P      786.286    -894.450     304.910
  C      783.815    -894.840     304.290
  O      785.040    -894.220     303.923
  C      782.706    -894.480     303.269
  O      782.466    -893.030     303.305
  C      783.037    -894.810     301.843
  O      782.867    -896.200     301.609
  C      782.039    -893.900     301.104
  O      780.738    -894.520     301.069
  C      782.035    -892.660     302.000
  N      782.161    -888.820     298.651
  C      781.274    -889.800     298.855
  N      781.338    -890.820     299.741
  C      782.462    -890.760     300.459
  C      783.479    -889.820     300.351
  C      783.274    -888.790     299.424
  N      784.161    -887.720     299.270
  N      784.498    -890.100     301.265
  C      784.096    -891.170     301.878
  N      782.860    -891.580     301.479
  O      786.021    -894.160     306.355
  O      786.607    -896.020     304.718
  H      780.778    -895.290     300.491
  H      786.638    -896.460     305.570
  H      780.390    -889.780     298.218
  H      784.647    -891.720     302.647
  H      780.993    -892.260     302.130
  H      782.343    -893.720     300.085
  H      784.067    -894.480     301.599
  H      781.766    -894.960     303.624
  H      783.526    -894.510     305.299
  H      783.852    -886.960     298.655
  H      784.835    -887.550     300.002
  H      783.961    -895.930     304.295
  P      783.276    -896.830     300.193
  C      783.922    -899.150     299.320
  O      783.768    -898.320     300.459
  O      784.226    -896.000     299.379
  O      781.891    -897.030     299.435
  H      781.996    -896.920     298.491
  H      782.933    -899.490     298.989
  H      784.540    -900.000     299.603
  H      784.408    -898.600     298.501
  H      789.504    -893.112     304.461
  H      789.112    -894.598     305.292
  H      788.565    -893.068     305.935

 3  4  5  6  7  8  9  10  11  12  22  25  29  30  31  32 0
 6-311+G(2d,p)
 ****
 33  36  37 0
 6-311+G(2d,p)
 ****
 1  2  13  14  15  16  17  18  19  20  21  23  24  26 0
 3-21G
 ****
 27  28  34  35  38  39  40  41  42  43  44  45  46  47  48 0
 3-21G
 ****


