%nproc=1
%NoSave
%Mem=1900MB
#P OB98/GEN NMR

erre ene a

0 1
  C      148.740     611.301    -519.729
  O      147.776     612.340    -519.528
  P      147.034     612.475    -518.120
  C      145.018     611.172    -519.082
  O      145.929     611.313    -517.995
  C      143.939     610.138    -518.717
  O      143.184     610.543    -517.550
  C      142.894     609.967    -519.812
  O      143.318     609.345    -521.013
  C      141.741     609.316    -519.062
  O      141.914     607.906    -518.936
  C      141.850     609.998    -517.680
  N      140.837     611.032    -517.478
  C      139.686     610.645    -516.810
  O      139.471     609.489    -516.438
  N      138.741     611.622    -516.609
  C      138.833     612.924    -517.038
  O      137.949     613.748    -516.851
  C      140.079     613.274    -517.755
  C      140.999     612.334    -517.940
  O      146.570     613.836    -517.749
  O      148.166     611.967    -517.083
  H      141.044     607.523    -518.680
  H      148.131     612.550    -516.301
  H      137.897     611.362    -516.121
  H      140.171     614.292    -518.116
  H      141.918     612.571    -518.461
  H      141.738     609.254    -516.872
  H      140.782     609.477    -519.568
  H      142.544     610.971    -520.107
  H      144.426     609.188    -518.487
  H      145.557     610.855    -519.977
  H      144.567     612.142    -519.310
  P      143.603     610.153    -522.364
  C      141.142     610.751    -522.961
  O      142.422     611.213    -522.588
  O      144.041     609.359    -523.552
  O      144.824     611.100    -521.916
  H      145.401     611.240    -522.681
  H      140.482     611.599    -523.080
  H      140.740     610.086    -522.194
  H      141.204     610.208    -523.916
  H      149.130     611.364    -520.723
  H      148.272     610.349    -519.589
  H      149.538     611.413    -519.025

 3  4  5  6  7  8  9  10  11  12  13  23  28  29  30  31  32 0
 6-311+G(2d,p)
 ****
 33  34 0
 6-311+G(2d,p)
 ****
 1  2  14  15  16  17  18  19  20  21  22  24  25  26  27 0
 3-21G
 ****
 35  36  37  38  39  40  41  42  43  44  45 0
 3-21G
 ****


