%nproc=1
%NoSave
%Mem=1900MB
#P OB98/GEN NMR

erre ene a

0 1
  C     -126.842     225.853     -83.696
  O     -125.430     225.865     -83.676
  H     -127.181     224.837     -83.913
  H     -127.207     226.515     -84.484
  H     -127.253     226.160     -82.730
  P     -124.670     227.157     -83.109
  C     -123.570     226.023     -81.069
  O     -123.370     226.607     -82.348
  C     -122.221     225.681     -80.429
  O     -121.601     224.617     -81.213
  C     -121.240     226.869     -80.394
  O     -120.442     226.770     -79.208
  C     -120.389     226.594     -81.617
  O     -119.159     227.270     -81.564
  C     -120.284     225.073     -81.564
  N     -119.822     224.524     -82.836
  C     -118.477     224.690     -83.143
  O     -117.678     225.274     -82.411
  N     -118.077     224.224     -84.366
  C     -118.896     223.724     -85.334
  O     -118.496     223.395     -86.443
  C     -120.319     223.620     -84.975
  C     -120.712     224.014     -83.761
  O     -125.502     228.108     -82.314
  O     -124.034     227.844     -84.407
  H     -118.580     226.859     -80.895
  H     -123.838     228.784     -84.234
  H     -117.101     224.328     -84.597
  H     -121.000     223.241     -85.726
  H     -121.755     223.969     -83.469
  H     -119.598     224.757     -80.767
  H     -120.914     226.920     -82.522
  H     -121.739     227.841     -80.425
  H     -122.393     225.279     -79.424
  H     -124.162     225.109     -81.199
  H     -124.125     226.718     -80.430
  P     -120.927     227.382     -77.807
  C     -119.257     225.904     -76.532
  O     -119.776     227.220     -76.691
  O     -122.274     226.904     -77.362
  O     -120.970     228.963     -78.063
  H     -121.803     229.322     -77.702
  H     -118.504     225.907     -75.772
  H     -118.829     225.575     -77.456
  H     -120.047     225.241     -76.249

 6  7  8  9  10  11  12  13  14  15  16  26  31  32  33  34  35 0
 6-311+G(2d,p)
 ****
 36  37 0
 6-311+G(2d,p)
 ****
 1  2  3  4  5  17  18  19  20  21  22  23  24  25 0
 3-21G
 ****
 27  28  29  30  38  39  40  41  42  43  44  45 0
 3-21G
 ****


