%nproc=1
%NoSave
%Mem=1900MB
#P OB98/GEN NMR

erre ene a

0 1
  C       71.636     158.956    -362.018
  O       72.096     157.924    -362.907
  P       71.839     156.387    -362.519
  C       71.289     155.328    -364.839
  O       72.198     155.429    -363.755
  C       71.470     156.487    -365.829
  O       72.885     156.687    -366.114
  C       70.766     156.288    -367.178
  O       70.357     157.583    -367.637
  C       71.884     155.752    -368.055
  O       71.626     155.899    -369.445
  C       73.056     156.595    -367.543
  N       74.375     156.054    -367.876
  C       75.414     156.953    -368.089
  O       75.288     158.176    -368.077
  N       76.639     156.397    -368.355
  C       76.912     155.065    -368.468
  O       78.025     154.631    -368.739
  C       75.771     154.163    -368.261
  C       74.578     154.690    -367.980
  O       70.238     156.315    -362.489
  O       72.398     155.956    -361.200
  H       71.566     156.853    -369.629
  H       69.943     155.839    -361.691
  H       77.407     157.034    -368.498
  H       75.947     153.098    -368.337
  H       73.724     154.042    -367.811
  H       72.975     157.613    -367.936
  H       72.025     154.685    -367.853
  H       69.904     155.616    -367.117
  H       71.115     157.405    -365.345
  H       70.266     155.346    -364.454
  H       71.445     154.370    -365.348
  P       68.795     157.833    -367.932
  C       68.318     160.262    -367.089
  O       68.604     159.405    -368.169
  O       68.188     157.606    -366.464
  O       68.208     156.923    -368.958
  H       68.701     158.055    -365.773
  H       68.902     159.999    -366.203
  H       67.252     160.208    -366.849
  H       68.563     161.286    -367.378
  H       71.886     159.914    -362.424
  H       72.105     158.839    -361.063
  H       70.574     158.883    -361.905

 3  4  5  6  7  8  9  10  11  12  13  23  28  29  30  31  32 0
 6-311+G(2d,p)
 ****
 33  34 0
 6-311+G(2d,p)
 ****
 1  2  14  15  16  17  18  19  20  21  22  24  25  26 0
 3-21G
 ****
 27  35  36  37  38  39  40  41  42  43  44  45 0
 3-21G
 ****


