%nproc=1
%NoSave
%Mem=1900MB
#P OB98/GEN NMR

erre ene a

0 1
  C      -73.522     413.652    -653.109
  O      -73.137     414.582    -654.125
  P      -72.690     416.033    -653.635
  C      -70.277     415.619    -654.552
  O      -71.421     416.461    -654.523
  C      -69.663     415.633    -655.959
  O      -70.536     414.972    -656.893
  C      -69.434     417.040    -656.525
  O      -68.275     417.639    -655.969
  C      -69.346     416.755    -658.016
  O      -68.013     416.345    -658.371
  C      -70.342     415.587    -658.186
  N      -71.602     416.018    -658.773
  C      -71.570     416.405    -660.117
  O      -70.517     416.405    -660.769
  N      -72.741     416.835    -660.662
  C      -73.938     416.945    -660.008
  O      -74.951     417.360    -660.551
  C      -73.923     416.542    -658.599
  C      -72.798     416.117    -658.052
  O      -72.060     415.790    -652.180
  O      -73.798     417.048    -653.601
  H      -67.855     415.509    -657.886
  H      -72.263     416.553    -651.602
  H      -72.734     417.083    -661.627
  H      -74.866     416.629    -658.044
  H      -72.753     415.833    -656.985
  H      -69.902     414.817    -658.833
  H      -69.590     417.640    -658.612
  H      -70.346     417.654    -656.325
  H      -68.710     415.089    -655.913
  H      -70.553     414.627    -654.277
  H      -69.548     415.990    -653.815
  P      -68.491     419.048    -655.204
  C      -68.225     417.806    -652.942
  O      -67.786     418.840    -653.772
  O      -70.056     419.014    -654.921
  O      -68.020     420.208    -656.009
  H      -70.381     418.099    -654.789
  H      -68.551     416.918    -653.478
  H      -69.080     418.165    -652.314
  H      -67.421     417.517    -652.240
  H      -73.798     412.723    -653.562
  H      -74.355     414.044    -652.564
  H      -72.701     413.493    -652.441

 3  4  5  6  7  8  9  10  11  12  13  23  28  29  30  31  32 0
 6-311+G(2d,p)
 ****
 33  34 0
 6-311+G(2d,p)
 ****
 1  2  14  15  16  17  18  19  20  21  22  24  25  26 0
 3-21G
 ****
 27  35  36  37  38  39  40  41  42  43  44  45 0
 3-21G
 ****


