%nproc=1
%NoSave
%Mem=1900MB
#P OB98/GEN NMR

erre ene a

0 1
  C     -323.956     -27.743      36.211
  O     -324.187     -28.772      35.272
  H     -324.883     -27.550      36.754
  H     -323.653     -26.827      35.696
  H     -323.183     -28.043      36.924
  P     -322.940     -29.239      34.373
  C     -323.931     -28.587      32.056
  O     -323.582     -29.635      32.952
  C     -325.112     -29.008      31.177
  O     -324.612     -29.461      29.894
  C     -325.945     -30.139      31.781
  O     -327.335     -29.860      31.594
  C     -325.536     -31.367      30.986
  O     -326.559     -32.364      30.961
  C     -325.174     -30.762      29.626
  N     -324.230     -31.602      28.890
  C     -324.717     -32.824      28.413
  O     -325.884     -33.154      28.628
  N     -323.859     -33.668      27.750
  C     -322.608     -33.345      27.629
  N     -321.804     -34.231      26.983
  C     -322.043     -32.091      28.159
  C     -322.900     -31.273      28.767
  O     -322.546     -30.648      35.013
  O     -321.811     -28.268      34.298
  H     -327.327     -31.995      30.477
  H     -321.662     -30.955      34.697
  H     -320.988     -31.874      28.049
  H     -322.570     -30.330      29.191
  H     -326.072     -30.623      29.012
  H     -324.645     -31.815      31.444
  H     -325.757     -30.286      32.845
  H     -325.729     -28.124      30.975
  H     -322.229     -35.087      26.640
  H     -323.068     -28.356      31.424
  H     -320.812     -34.099      26.857
  H     -324.205     -27.697      32.632
  P     -328.075     -29.139      32.826
  C     -330.053     -30.784      33.160
  O     -329.639     -29.499      32.724
  O     -328.013     -27.586      32.447
  O     -327.451     -29.432      34.150
  H     -327.284     -27.151      32.929
  H     -331.111     -30.880      33.033
  H     -329.805     -30.907      34.194
  H     -329.555     -31.534      32.582

 6  7  8  9  10  11  12  13  14  15  16  26  30  31  32  33  35 0
 6-311+G(2d,p)
 ****
 37  38 0
 6-311+G(2d,p)
 ****
 1  2  3  4  5  17  18  19  20  21  22  23  24  25 0
 3-21G
 ****
 27  28  29  34  36  39  40  41  42  43  44  45  46 0
 3-21G
 ****


