%nproc=1
%NoSave
%Mem=1900MB
#P OB98/GEN NMR

erre ene a

0 1
  C       38.754      73.410     -34.055
  O       37.568      72.634     -34.012
  P       37.592      71.130     -33.474
  C       37.332      69.937     -35.797
  O       38.111      70.183     -34.647
  C       38.183      69.174     -36.820
  O       39.218      70.031     -37.344
  C       38.854      67.954     -36.193
  O       38.073      66.789     -36.404
  C       40.197      67.917     -36.896
  O       40.073      67.292     -38.187
  C       40.506      69.424     -37.057
  N       41.102      70.138     -35.912
  C       42.485      70.250     -35.814
  O       43.266      69.810     -36.652
  N       42.953      70.876     -34.686
  C       42.184      71.424     -33.701
  O       42.603      71.758     -32.599
  C       40.751      71.514     -33.995
  C       40.280      70.858     -35.055
  O       36.039      70.763     -33.361
  O       38.312      70.921     -32.183
  H       39.857      66.355     -38.032
  H       35.729      70.858     -32.441
  H       43.957      70.837     -34.541
  H       40.120      72.063     -33.310
  H       39.215      70.878     -35.272
  H       41.157      69.601     -37.921
  H       40.918      67.321     -36.339
  H       39.024      68.123     -35.122
  H       37.543      68.868     -37.656
  H       36.981      70.883     -36.222
  H       36.445      69.352     -35.532
  P       37.929      65.711     -35.231
  C       39.966      64.472     -36.172
  O       39.399      65.098     -35.039
  O       36.836      64.710     -35.406
  O       37.706      66.614     -33.927
  H       36.750      66.667     -33.721
  H       41.018      64.262     -35.968
  H       39.895      65.124     -37.048
  H       39.449      63.528     -36.369
  H       38.531      74.382     -34.443
  H       39.472      72.930     -34.687
  H       39.155      73.504     -33.067

 3  4  5  6  7  8  9  10  11  12  13  23  28  29  30  31  32 0
 6-311+G(2d,p)
 ****
 33  34 0
 6-311+G(2d,p)
 ****
 1  2  14  15  16  17  18  19  20  21  22  24  25  26  27 0
 3-21G
 ****
 35  36  37  38  39  40  41  42  43  44  45 0
 3-21G
 ****


