%nproc=1
%NoSave
%Mem=1900MB
#P OB98/GEN NMR

erre ene a

0 1
  C     -517.179    -277.110      39.728
  O     -517.203    -276.067      40.686
  H     -517.855    -277.902      40.055
  H     -516.167    -277.517      39.637
  H     -517.518    -276.735      38.758
  P     -516.242    -274.810      40.404
  C     -515.561    -274.886      42.904
  O     -516.084    -274.101      41.836
  C     -515.273    -274.006      44.119
  O     -514.179    -273.106      43.846
  C     -516.449    -273.133      44.550
  O     -517.337    -273.876      45.371
  C     -515.727    -272.059      45.351
  O     -515.441    -272.546      46.679
  C     -514.415    -271.872      44.570
  N     -513.694    -266.824      43.998
  C     -513.813    -267.584      45.100
  N     -514.061    -268.914      45.181
  C     -514.177    -269.454      43.952
  C     -514.079    -268.789      42.735
  C     -513.817    -267.409      42.785
  N     -513.706    -266.626      41.651
  N     -514.258    -269.672      41.685
  C     -514.396    -270.848      42.262
  N     -514.393    -270.769      43.631
  O     -516.647    -273.928      39.269
  O     -514.829    -275.543      40.221
  H     -516.302    -272.709      47.109
  H     -514.732    -276.259      40.872
  H     -513.697    -267.074      46.046
  H     -514.488    -271.793      41.725
  H     -513.557    -271.724      45.241
  H     -516.322    -271.150      45.472
  H     -516.948    -272.670      43.699
  H     -514.950    -274.660      44.942
  H     -514.635    -275.388      42.580
  H     -513.714    -265.630      41.783
  H     -513.926    -267.049      40.758
  H     -516.302    -275.652      43.146
  P     -518.607    -274.628      44.741
  C     -519.676    -273.733      46.902
  O     -519.636    -274.803      45.963
  O     -518.279    -275.872      43.985
  O     -519.315    -273.523      43.835
  H     -519.931    -273.951      43.202
  H     -520.391    -273.956      47.667
  H     -519.959    -272.830      46.402
  H     -518.709    -273.609      47.343

 6  7  8  9  10  11  12  13  14  15  25  28  32  33  34  35 0
 6-311+G(2d,p)
 ****
 36  39  40 0
 6-311+G(2d,p)
 ****
 1  2  3  4  5  16  17  18  19  20  21  22  23  24 0
 3-21G
 ****
 26  27  29  30  31  37  38  41  42  43  44  45  46  47 0
 3-21G
 ****
 48 0
 3-21G
 ****


