%nproc=1
%NoSave
%Mem=1900MB
#P OB98/GEN NMR

erre ene a

0 1
  C     -218.057     803.526    -452.708
  O     -217.954     802.288    -453.389
  H     -217.722     803.388    -451.675
  H     -219.093     803.880    -452.688
  H     -217.421     804.275    -453.187
  P     -218.534     802.197    -454.882
  C     -216.795     803.329    -456.425
  O     -217.973     803.486    -455.643
  C     -217.091     803.604    -457.894
  O     -217.980     802.595    -458.416
  C     -217.807     804.931    -458.121
  O     -216.895     806.011    -458.013
  C     -218.394     804.711    -459.499
  O     -217.415     804.905    -460.529
  C     -218.821     803.227    -459.417
  N     -220.236     803.058    -459.092
  C     -221.042     802.569    -460.122
  O     -220.559     802.290    -461.219
  N     -222.387     802.416    -459.887
  C     -222.877     802.717    -458.724
  N     -224.213     802.547    -458.550
  C     -222.058     803.229    -457.607
  C     -220.755     803.374    -457.864
  O     -220.014     801.989    -455.020
  O     -217.696     800.996    -455.532
  H     -216.788     804.159    -460.446
  H     -218.149     800.145    -455.388
  H     -222.507     803.461    -456.657
  H     -220.086     803.747    -457.096
  H     -218.621     802.716    -460.369
  H     -219.222     805.391    -459.693
  H     -218.627     805.048    -457.410
  H     -216.157     803.553    -458.455
  H     -224.741     802.201    -459.347
  H     -216.461     802.292    -456.297
  H     -224.691     802.661    -457.669
  H     -215.997     803.994    -456.070
  P     -217.429     807.518    -457.901
  C     -217.442     807.210    -455.342
  O     -218.190     807.601    -456.488
  O     -218.202     808.007    -459.077
  O     -216.085     808.358    -457.629
  H     -215.546     808.440    -458.452
  H     -218.051     807.308    -454.468
  H     -216.580     807.837    -455.248
  H     -217.132     806.191    -455.449

 6  7  8  9  10  11  12  13  14  15  16  26  30  31  32  33  35 0
 6-311+G(2d,p)
 ****
 37  38 0
 6-311+G(2d,p)
 ****
 1  2  3  4  5  17  18  19  20  21  22  23  24  25 0
 3-21G
 ****
 27  28  29  34  36  39  40  41  42  43  44  45  46 0
 3-21G
 ****


