%nproc=1
%NoSave
%Mem=1900MB
#P OB98/GEN NMR

erre ene a

0 1
  C      589.266     726.520     836.167
  O      588.905     725.162     836.299
  H      588.402     727.164     836.354
  H      590.042     726.751     836.896
  H      589.660     726.707     835.162
  P      587.694     724.652     835.376
  C      589.247     723.956     833.420
  O      588.191     724.794     833.854
  C      589.019     723.540     831.964
  O      587.880     722.660     831.875
  C      588.706     724.689     831.021
  O      589.880     725.400     830.632
  C      588.111     723.929     829.837
  O      589.164     723.369     829.027
  C      587.333     722.799     830.541
  N      582.738     722.257     828.286
  C      583.986     721.888     827.902
  N      585.150     722.062     828.550
  C      584.971     722.702     829.719
  C      583.759     723.148     830.237
  C      582.602     722.905     829.467
  N      581.348     723.309     829.861
  N      583.951     723.754     831.472
  C      585.248     723.670     831.688
  N      585.908     723.050     830.651
  O      586.602     725.815     835.522
  O      587.128     723.319     835.742
  H      589.609     722.703     829.580
  H      585.709     725.412     835.509
  H      584.046     721.352     826.961
  H      585.746     724.037     832.570
  H      587.470     721.841     830.027
  H      587.494     724.555     829.192
  H      587.948     725.363     831.432
  H      589.905     722.982     831.627
  H      589.284     723.062     834.043
  H      580.547     722.936     829.373
  H      581.255     723.790     830.750
  H      590.197     724.496     833.511
  P      589.711     726.944     830.237
  C      590.299     727.449     832.711
  O      589.433     727.720     831.616
  O      588.301     726.987     829.503
  O      590.805     727.494     829.375
  H      588.258     727.737     828.883
  H      589.998     728.031     833.557
  H      591.303     727.703     832.443
  H      590.247     726.409     832.958

 6  7  8  9  10  11  12  13  14  15  25  28  32  33  34  35 0
 6-311+G(2d,p)
 ****
 36  39  40 0
 6-311+G(2d,p)
 ****
 1  2  3  4  5  16  17  18  19  20  21  22  23  24 0
 3-21G
 ****
 26  27  29  30  31  37  38  41  42  43  44  45  46  47  48 0
 3-21G
 ****


