%nproc=1
%NoSave
%Mem=1900MB
#P OB98/GEN NMR

erre ene a

0 1
  C     -895.810    -350.060    -567.410
  O     -895.590    -348.787    -567.983
  P     -894.150    -348.383    -568.552
  C     -895.210    -347.416    -570.679
  O     -894.260    -348.334    -570.161
  C     -895.110    -347.325    -572.198
  O     -893.750    -346.944    -572.572
  C     -895.430    -348.631    -572.948
  O     -896.050    -348.249    -574.187
  C     -894.060    -349.206    -573.238
  O     -894.060    -350.145    -574.303
  C     -893.270    -347.923    -573.518
  N     -888.980    -349.400    -575.852
  C     -890.260    -349.393    -576.262
  N     -891.360    -349.010    -575.567
  C     -891.020    -348.591    -574.338
  C     -889.750    -348.573    -573.772
  C     -888.690    -348.985    -574.594
  N     -887.370    -348.968    -574.211
  N     -889.820    -348.134    -572.465
  C     -891.100    -347.897    -572.248
  N     -891.850    -348.103    -573.367
  O     -893.010    -349.196    -568.031
  O     -893.990    -346.842    -568.157
  H     -893.140    -350.352    -574.532
  H     -893.360    -346.751    -567.419
  H     -890.450    -349.741    -577.278
  H     -891.530    -347.584    -571.308
  H     -893.460    -347.538    -574.526
  H     -893.680    -349.711    -572.336
  H     -896.070    -349.313    -572.387
  H     -895.770    -346.514    -572.538
  H     -895.010    -346.439    -570.238
  H     -886.680    -349.150    -574.922
  H     -887.100    -348.420    -573.391
  H     -896.210    -347.724    -570.382
  P     -897.540    -348.758    -574.520
  C     -899.180    -347.166    -573.371
  O     -898.450    -348.376    -573.263
  O     -897.640    -350.181    -574.974
  O     -898.040    -347.739    -575.653
  H     -898.800    -348.124    -576.123
  H     -898.520    -346.320    -573.150
  H     -900.000    -347.182    -572.653
  H     -899.600    -347.042    -574.377
  H     -896.829    -350.137    -567.091
  H     -895.162    -350.189    -566.568
  H     -895.606    -350.818    -568.137

 3  4  5  6  7  8  9  10  11  12  22  25  29  30  31  32 0
 6-311+G(2d,p)
 ****
 33  36  37 0
 6-311+G(2d,p)
 ****
 1  2  13  14  15  16  17  18  19  20  21  23  24  26 0
 3-21G
 ****
 27  28  34  35  38  39  40  41  42  43  44  45  46  47  48 0
 3-21G
 ****


