%nproc=1
%NoSave
%Mem=1900MB
#P OB98/GEN NMR

erre ene a

0 1
  C      595.343    -896.790    -475.004
  O      595.063    -897.540    -473.840
  H      594.803    -895.830    -474.941
  H      594.994    -897.330    -475.885
  H      596.414    -896.580    -475.090
  P      596.035    -898.780    -473.526
  C      596.964    -897.960    -471.247
  O      597.228    -898.210    -472.615
  C      597.316    -896.510    -470.891
  O      596.443    -895.620    -471.645
  C      597.154    -896.160    -469.400
  O      598.200    -895.260    -469.016
  C      595.834    -895.410    -469.368
  O      595.724    -894.570    -468.228
  C      595.886    -894.670    -470.703
  N      592.721    -890.820    -470.223
  C      594.055    -890.940    -469.863
  N      594.610    -889.880    -469.210
  N      594.775    -891.990    -470.107
  C      594.091    -892.960    -470.765
  C      592.779    -892.970    -471.176
  C      591.989    -891.790    -470.876
  O      590.795    -891.640    -471.157
  N      592.445    -894.170    -471.772
  C      593.555    -894.900    -471.697
  N      594.584    -894.210    -471.096
  O      596.734    -899.060    -474.944
  O      595.362    -900.000    -472.996
  H      595.712    -895.140    -467.425
  H      596.240    -899.760    -475.420
  H      592.211    -889.980    -469.984
  H      593.676    -895.910    -472.045
  H      596.546    -893.810    -470.658
  H      595.006    -896.130    -469.341
  H      594.140    -889.020    -469.011
  H      597.177    -897.040    -468.739
  H      595.596    -889.950    -468.975
  H      598.347    -896.310    -471.228
  H      597.572    -898.620    -470.631
  H      595.905    -898.160    -471.042
  P      599.099    -895.630    -467.744
  C      601.527    -895.350    -468.660
  O      600.487    -896.240    -468.270
  O      598.341    -896.900    -467.134
  O      599.220    -894.530    -466.742
  H      598.425    -896.900    -466.169
  H      602.377    -895.914    -468.983
  H      601.802    -894.736    -467.828
  H      601.184    -894.731    -469.463

 6  7  8  9  10  11  12  13  14  15  26  29  33  34 0
 6-311+G(2d,p)
 ****
 36  38  39  40  41 0
 6-311+G(2d,p)
 ****
 1  2  3  4  5  16  17  18  19  20  21  22  23  24  25 0
 3-21G
 ****
 27  28  30  31  32  35  37  42  43  44  45  46  47 0
 3-21G
 ****
 48  49 0
 3-21G
 ****


