%nproc=1
%NoSave
%Mem=1900MB
#P OB98/GEN NMR

erre ene a

0 1
  C       46.910      16.677     -37.994
  O       47.054      16.123     -36.706
  P       45.836      15.522     -35.866
  C       46.061      16.305     -33.394
  O       46.340      15.291     -34.352
  C       46.998      16.261     -32.177
  O       46.870      14.988     -31.512
  C       48.462      16.353     -32.644
  O       49.045      17.614     -32.911
  C       49.246      15.472     -31.670
  O       49.872      16.233     -30.635
  C       48.169      14.551     -31.089
  N       50.314      10.112     -29.897
  C       50.151      11.240     -29.109
  N       50.808      11.237     -27.932
  N       49.426      12.270     -29.468
  C       48.908      12.162     -30.713
  C       48.990      11.093     -31.575
  C       49.753       9.939     -31.153
  O       49.992       8.958     -31.854
  N       48.404      11.365     -32.786
  C       48.002      12.613     -32.672
  N       48.324      13.155     -31.448
  O       45.022      14.452     -36.524
  O       44.890      16.819     -35.710
  H       49.199      16.801     -30.234
  H       43.963      16.510     -35.725
  H       50.946       9.374     -29.599
  H       47.511      13.183     -33.451
  H       48.174      14.601     -29.994
  H       50.047      14.936     -32.193
  H       51.488      10.529     -27.690
  H       48.521      15.826     -33.605
  H       50.852      12.108     -27.412
  H       46.728      17.017     -31.441
  H       45.017      16.185     -33.076
  H       46.141      17.289     -33.872
  P       49.715      18.077     -34.289
  C       51.525      19.337     -32.988
  O       50.558      19.411     -34.020
  O       48.480      18.605     -35.166
  O       50.451      17.003     -35.026
  H       48.714      18.580     -36.115
  H       51.815      20.345     -32.691
  H       52.412      18.809     -33.365
  H       51.131      18.799     -32.116
  H       47.863      17.010     -38.347
  H       46.235      17.506     -37.952
  H       46.522      15.935     -38.660

 3  4  5  6  7  8  9  10  11  12  23  26  30  31 0
 6-311+G(2d,p)
 ****
 33  35  36  37  38 0
 6-311+G(2d,p)
 ****
 1  2  13  14  15  16  17  18  19  20  21  22  24  25 0
 3-21G
 ****
 27  28  29  32  34  39  40  41  42  43  44  45  46  47  48  49 0
 3-21G
 ****


