%nproc=1
%NoSave
%Mem=1900MB
#P OB98/GEN NMR

erre ene a

0 1
  C      411.144    -898.430     138.870
  O      411.180    -898.130     137.483
  P      412.406    -898.610     136.570
  C      413.726    -896.420     136.908
  O      413.111    -897.280     135.971
  C      414.740    -895.510     136.215
  O      415.860    -896.270     135.730
  C      414.193    -894.780     135.002
  O      413.313    -893.730     135.352
  C      415.477    -894.340     134.306
  O      415.994    -893.150     134.924
  C      416.393    -895.540     134.595
  N      416.580    -896.400     133.422
  C      417.543    -895.980     132.503
  O      418.107    -894.910     132.635
  N      417.810    -896.800     131.427
  C      417.090    -897.870     131.238
  N      417.422    -898.660     130.187
  C      415.968    -898.240     132.116
  C      415.783    -897.490     133.193
  O      412.103    -899.660     135.575
  O      413.500    -899.110     137.634
  H      413.815    -900.000     137.359
  H      416.108    -893.360     135.883
  H      415.344    -899.090     131.857
  H      414.976    -897.720     133.902
  H      417.397    -895.200     134.924
  H      415.333    -894.130     133.246
  H      413.662    -895.500     134.354
  H      415.113    -894.790     136.962
  H      418.218    -898.380     129.628
  H      414.243    -897.020     137.668
  H      417.162    -899.640     130.147
  H      412.946    -895.820     137.407
  P      412.096    -893.430     134.336
  C      413.353    -891.780     132.746
  O      412.354    -891.950     133.722
  O      410.841    -893.240     135.295
  O      411.861    -894.490     133.309
  H      410.039    -893.610     134.862
  H      413.142    -890.850     132.211
  H      413.330    -892.610     132.017
  H      414.320    -891.730     133.231
  H      410.251    -898.026     139.299
  H      411.997    -897.999     139.350
  H      411.156    -899.491     139.006

 3  4  5  6  7  8  9  10  11  12  13  24  27  28  29  30  32 0
 6-311+G(2d,p)
 ****
 34  35 0
 6-311+G(2d,p)
 ****
 1  2  14  15  16  17  18  19  20  21  22  23  25  26 0
 3-21G
 ****
 31  33  36  37  38  39  40  41  42  43  44  45  46 0
 3-21G
 ****


