%nproc=1
%NoSave
%Mem=1900MB
#P OB98/GEN NMR

erre ene a

0 1
  C     -104.164       2.482    -294.839
  O     -104.219       3.641    -294.033
  P     -105.222       3.705    -292.780
  C     -105.159       6.275    -292.682
  O     -105.981       5.117    -292.814
  C     -105.598       7.356    -293.669
  O     -105.493       6.887    -295.030
  C     -107.055       7.792    -293.510
  O     -107.247       8.582    -292.356
  C     -107.286       8.503    -294.833
  O     -106.764       9.843    -294.791
  C     -106.463       7.634    -295.809
  N     -107.297       6.756    -296.610
  C     -108.038       7.367    -297.631
  O     -108.024       8.589    -297.764
  N     -108.779       6.570    -298.469
  C     -108.872       5.298    -298.234
  N     -109.574       4.552    -299.136
  C     -108.240       4.645    -297.074
  C     -107.456       5.416    -296.322
  O     -104.612       3.355    -291.462
  O     -106.384       2.669    -293.162
  H     -106.528       2.063    -292.408
  H     -107.314      10.333    -294.145
  H     -108.404       3.591    -296.883
  H     -106.928       5.017    -295.463
  H     -105.873       8.276    -296.477
  H     -108.350       8.581    -295.082
  H     -107.694       6.898    -293.459
  H     -104.926       8.217    -293.545
  H     -109.978       5.036    -299.926
  H     -104.122       5.993    -292.881
  H     -109.436       3.549    -299.231
  H     -105.220       6.645    -291.649
  P     -107.952       7.876    -291.098
  C     -109.903       9.499    -291.619
  O     -109.519       8.213    -291.176
  O     -107.436       8.742    -289.854
  O     -107.624       6.429    -290.927
  H     -107.302       8.156    -289.077
  H     -110.948       9.457    -291.949
  H     -109.283       9.844    -292.456
  H     -109.820      10.215    -290.789
  H     -103.445       2.623    -295.618
  H     -105.126       2.302    -295.270
  H     -103.879       1.643    -294.239

 3  4  5  6  7  8  9  10  11  12  13  24  27  28  29  30  32 0
 6-311+G(2d,p)
 ****
 34  35 0
 6-311+G(2d,p)
 ****
 1  2  14  15  16  17  18  19  20  21  22  23  25  26 0
 3-21G
 ****
 31  33  36  37  38  39  40  41  42  43  44  45  46 0
 3-21G
 ****


