%nproc=1
%NoSave
%Mem=1900MB
#P OB98/GEN NMR

erre ene a

0 1
  C      249.509    -897.990     102.411
  O      250.915    -897.920     102.241
  H      249.120    -898.780     101.751
  H      249.044    -897.050     102.144
  H      249.257    -898.260     103.442
  P      251.757    -896.980     103.232
  C      253.888    -898.410     103.521
  O      253.306    -897.260     102.919
  C      255.157    -898.840     102.752
  O      254.745    -899.590     101.566
  C      256.022    -897.660     102.273
  O      257.382    -898.130     102.238
  C      255.486    -897.470     100.860
  O      256.292    -896.610     100.080
  C      255.361    -898.930     100.430
  N      254.580    -899.160      99.219
  C      255.219    -899.010      97.997
  O      256.411    -898.690      97.857
  N      254.454    -899.230      96.887
  C      253.124    -899.590      96.878
  O      252.501    -899.800      95.845
  C      252.504    -899.730      98.196
  C      253.247    -899.520      99.291
  O      251.382    -897.050     104.667
  O      251.547    -895.510     102.626
  H      250.883    -895.030     103.168
  H      257.223    -896.940     100.113
  H      254.894    -899.130      95.989
  H      251.465    -900.000      98.223
  H      252.818    -899.630     100.286
  H      256.345    -899.380     100.303
  H      254.506    -896.980     100.910
  H      255.956    -896.790     102.907
  H      255.726    -899.530     103.379
  H      253.149    -899.230     103.500
  H      254.142    -898.190     104.554
  P      258.654    -897.160     102.311
  C      260.390    -898.610     103.592
  O      259.985    -898.050     102.327
  O      258.597    -896.160     103.420
  O      258.709    -896.420     100.875
  H      259.157    -895.560     100.982
  H      261.288    -899.177     103.460
  H      259.616    -899.248     103.964
  H      260.567    -897.820     104.291

 6  7  8  9  10  11  12  13  14  15  16  27  31  32  33  34  35 0
 6-311+G(2d,p)
 ****
 36  37 0
 6-311+G(2d,p)
 ****
 1  2  3  4  5  17  18  19  20  21  22  23  24  25 0
 3-21G
 ****
 26  28  29  30  38  39  40  41  42  43  44  45 0
 3-21G
 ****


