%nproc=1
%NoSave
%Mem=1900MB
#P OB98/GEN NMR

erre ene a

0 1
  C      226.697     157.891     181.230
  O      228.009     158.419     181.123
  P      228.214     159.724     180.209
  C      229.075     158.532     178.069
  O      228.023     159.262     178.685
  C      229.885     159.428     177.130
  O      231.059     158.693     176.679
  C      229.126     159.896     175.880
  O      229.591     161.215     175.581
  C      229.596     158.898     174.832
  O      229.360     159.307     173.497
  C      231.060     158.751     175.236
  N      234.743     157.031     172.133
  C      234.420     158.280     172.542
  N      233.430     158.660     173.376
  C      232.739     157.591     173.809
  C      232.939     156.265     173.467
  C      233.999     155.996     172.585
  N      234.319     154.721     172.161
  N      232.015     155.452     174.089
  C      231.267     156.271     174.796
  N      231.680     157.573     174.675
  O      229.785     159.997     180.318
  O      227.407     160.916     180.623
  H      229.607     158.589     172.881
  H      229.974     160.953     180.365
  H      235.039     159.079     172.146
  H      230.414     155.983     175.395
  H      231.656     159.620     174.932
  H      229.059     157.952     174.978
  H      228.040     159.919     176.014
  H      230.241     160.294     177.702
  H      228.650     157.715     177.480
  H      234.959     154.656     171.383
  H      233.638     153.995     172.337
  H      229.714     158.091     178.843
  P      228.516     162.372     175.292
  C      228.727     162.123     172.743
  O      227.888     161.966     173.866
  O      229.477     163.584     174.884
  O      227.567     162.671     176.398
  H      230.120     163.321     174.202
  H      228.214     161.723     171.865
  H      229.664     161.578     172.885
  H      228.933     163.186     172.577
  H      226.710     157.030     181.865
  H      226.344     157.613     180.259
  H      226.047     158.632     181.647

 3  4  5  6  7  8  9  10  11  12  22  25  29  30  31  32 0
 6-311+G(2d,p)
 ****
 33  36  37 0
 6-311+G(2d,p)
 ****
 1  2  13  14  15  16  17  18  19  20  21  23  24  26 0
 3-21G
 ****
 27  28  34  35  38  39  40  41  42  43  44  45  46  47  48 0
 3-21G
 ****


