%nproc=1
%NoSave
%Mem=1900MB
#P OB98/GEN NMR

erre ene a

0 1
  C      723.236     -89.522    -769.414
  O      724.220     -89.004    -768.526
  P      724.069     -89.222    -766.950
  C      726.416     -90.340    -766.940
  O      725.548     -89.398    -766.355
  C      727.894     -89.904    -766.796
  O      728.093     -88.732    -767.622
  C      728.281     -89.475    -765.384
  O      729.712     -89.506    -765.283
  C      727.808     -88.041    -765.332
  O      728.449     -87.282    -764.318
  C      728.068     -87.555    -766.794
  N      727.020     -86.623    -767.248
  C      726.909     -85.421    -766.552
  O      727.681     -85.085    -765.660
  N      725.825     -84.638    -766.878
  C      724.853     -84.981    -767.775
  O      723.749     -84.437    -767.819
  C      725.139     -86.137    -768.636
  C      726.194     -86.905    -768.318
  O      723.443     -90.699    -766.849
  O      723.222     -88.217    -766.251
  H      728.362     -86.328    -764.574
  H      722.468     -90.646    -766.759
  H      725.670     -83.841    -766.273
  H      724.476     -86.346    -769.459
  H      726.403     -87.805    -768.899
  H      729.046     -87.048    -766.876
  H      726.720     -88.035    -765.131
  H      727.844     -90.077    -764.585
  H      728.545     -90.702    -767.157
  H      726.158     -90.460    -767.995
  H      726.291     -91.314    -766.471
  P      730.364     -90.270    -764.031
  C      732.547     -90.413    -765.366
  O      731.953     -90.042    -764.149
  O      729.935     -91.674    -763.814
  O      729.967     -89.320    -762.792
  H      730.053     -89.818    -761.969
  H      733.435     -89.778    -765.550
  H      731.869     -90.278    -766.210
  H      732.865     -91.456    -765.326
  H      723.503     -89.281    -770.422
  H      722.285     -89.090    -769.183
  H      723.181     -90.585    -769.304

 3  4  5  6  7  8  9  10  11  12  13  23  28  29  30  31  32 0
 6-311+G(2d,p)
 ****
 33  34 0
 6-311+G(2d,p)
 ****
 1  2  14  15  16  17  18  19  20  21  22  24  25  26  27 0
 3-21G
 ****
 35  36  37  38  39  40  41  42  43  44  45 0
 3-21G
 ****


