%nproc=1
%NoSave
%Mem=1900MB
#P OB98/GEN NMR

erre ene a

0 1
  C     -175.820      75.158       5.211
  O     -175.811      74.794       6.598
  P     -175.179      73.426       7.149
  C     -175.859      70.929       7.245
  O     -176.274      72.264       6.975
  C     -176.982      69.937       6.934
  O     -178.153      70.236       7.733
  C     -177.495      69.965       5.502
  O     -176.587      69.374       4.590
  C     -178.819      69.216       5.643
  O     -178.626      67.796       5.583
  C     -179.277      69.624       7.057
  N     -180.427      70.513       7.047
  C     -181.659      69.940       6.716
  O     -181.726      68.760       6.373
  N     -182.783      70.727       6.768
  C     -182.672      71.995       7.021
  N     -183.822      72.720       7.078
  C     -181.376      72.663       7.241
  C     -180.307      71.870       7.243
  O     -174.626      73.527       8.533
  O     -174.035      73.036       6.099
  H     -173.355      72.495       6.542
  H     -178.126      67.544       6.383
  H     -181.325      73.729       7.406
  H     -179.315      72.278       7.410
  H     -179.517      68.732       7.648
  H     -179.528      69.479       4.852
  H     -177.695      71.004       5.208
  H     -176.630      68.930       7.193
  H     -184.695      72.228       6.932
  H     -175.606      70.853       8.309
  H     -183.848      73.706       7.289
  H     -174.963      70.704       6.658
  P     -176.110      70.274       3.351
  C     -177.181      71.047       1.116
  O     -177.387      70.531       2.417
  O     -175.200      69.277       2.489
  O     -175.356      71.504       3.734
  H     -174.432      69.760       2.132
  H     -178.003      70.716       0.474
  H     -176.235      70.702       0.689
  H     -177.183      72.139       1.158
  H     -176.294      76.110       5.095
  H     -176.358      74.421       4.652
  H     -174.814      75.214       4.851

 3  4  5  6  7  8  9  10  11  12  13  24  27  28  29  30  32 0
 6-311+G(2d,p)
 ****
 34  35 0
 6-311+G(2d,p)
 ****
 1  2  14  15  16  17  18  19  20  21  22  23  25  26 0
 3-21G
 ****
 31  33  36  37  38  39  40  41  42  43  44  45  46 0
 3-21G
 ****


