%nproc=1
%NoSave
%Mem=1900MB
#P OB98/GEN NMR

erre ene a

0 1
  C      198.654    -322.605     203.771
  O      199.357    -321.401     204.023
  H      197.766    -322.632     204.412
  H      199.288    -323.466     204.012
  H      198.341    -322.648     202.726
  P      200.681    -321.143     203.154
  C      199.593    -318.795     202.868
  O      200.793    -319.549     202.976
  C      199.916    -317.304     202.865
  O      200.346    -316.906     204.191
  C      201.052    -316.908     201.927
  O      200.624    -316.815     200.583
  C      201.474    -315.572     202.525
  O      200.646    -314.500     202.055
  C      201.257    -315.790     204.024
  N      204.979    -313.673     206.791
  C      203.831    -313.164     206.276
  N      202.883    -313.811     205.565
  C      203.205    -315.101     205.409
  C      204.334    -315.754     205.867
  C      205.259    -314.984     206.593
  N      206.449    -315.486     207.077
  N      204.331    -317.077     205.460
  C      203.210    -317.223     204.778
  N      202.495    -316.061     204.728
  O      200.259    -321.657     201.699
  O      201.915    -321.818     203.655
  H      200.859    -314.383     201.103
  H      200.550    -322.583     201.580
  H      203.668    -312.106     206.459
  H      202.880    -318.143     204.308
  H      200.789    -314.918     204.508
  H      202.505    -315.328     202.250
  H      201.880    -317.620     202.024
  H      198.999    -316.749     202.625
  H      198.945    -319.025     203.722
  H      199.077    -319.081     201.938
  H      207.067    -314.869     207.571
  H      206.708    -316.443     206.845
  P      201.495    -317.538     199.448
  C      199.412    -317.261     197.907
  O      200.827    -317.199     198.029
  O      201.159    -319.092     199.656
  O      202.957    -317.272     199.522
  H      201.874    -319.532     200.155
  H      199.129    -317.009     196.906
  H      198.965    -316.569     198.589
  H      199.078    -318.252     198.134

 6  7  8  9  10  11  12  13  14  15  25  28  32  33  34  35 0
 6-311+G(2d,p)
 ****
 36  37  40 0
 6-311+G(2d,p)
 ****
 1  2  3  4  5  16  17  18  19  20  21  22  23  24 0
 3-21G
 ****
 26  27  29  30  31  38  39 41  42  43  44  45  46  47  48 0
 3-21G
 ****


