%nproc=1
%NoSave
%Mem=1900MB
#P OB98/GEN NMR

erre ene a

0 1
  C       40.837       5.974     -77.991
  O       41.388       5.427     -76.811
  H       41.293       5.483     -78.853
  H       41.052       7.044     -78.042
  H       39.755       5.811     -78.024
  P       40.701       5.832     -75.420
  C       39.489       3.592     -74.888
  O       40.556       4.475     -74.569
  C       39.572       2.339     -74.016
  O       40.555       1.434     -74.598
  C       40.000       2.612     -72.567
  O       39.298       1.704     -71.710
  C       41.474       2.251     -72.571
  O       41.990       1.916     -71.290
  C       41.480       1.073     -73.553
  N       42.810       0.803     -74.096
  C       43.029      -0.453     -74.657
  O       42.167      -1.317     -74.802
  N       44.316      -0.700     -75.061
  C       45.377       0.148     -74.943
  O       46.512      -0.142     -75.306
  C       45.085       1.456     -74.336
  C       43.836       1.718     -73.946
  O       39.196       6.165     -75.846
  O       41.350       6.956     -74.685
  H       39.107       7.108     -76.082
  H       41.653       2.586     -70.656
  H       44.492      -1.607     -75.470
  H       45.904       2.151     -74.217
  H       43.589       2.664     -73.473
  H       41.090       0.172     -73.068
  H       42.063       3.089     -72.965
  H       39.829       3.641     -72.237
  H       38.604       1.823     -74.048
  H       39.560       3.302     -75.940
  H       38.535       4.107     -74.728
  P       39.016       2.183     -70.205
  C       36.448       1.665     -70.077
  O       37.770       1.305     -69.699
  O       38.402       3.638     -70.454
  O       40.231       2.146     -69.343
  H       37.861       3.692     -71.260
  H       35.754       0.972     -69.650
  H       36.364       1.644     -71.143
  H       36.231       2.651     -69.722

 6  7  8  9  10  11  12  13  14  15  16  27  31  32  33  34  35 0
 6-311+G(2d,p)
 ****
 36  37 0
 6-311+G(2d,p)
 ****
 1  2  3  4  5  17  18  19  20  21  22  23  24  25 0
 3-21G
 ****
 26  28  29  30  38  39  40  41  42  43  44  45 0
 3-21G
 ****


