%nproc=1
%NoSave
%Mem=1900MB
#P OB98/GEN NMR

erre ene a

0 1
  C     -411.996     110.498    -395.862
  O     -412.825     110.996    -394.813
  P     -413.786     109.950    -394.064
  C     -416.199     109.059    -394.400
  O     -415.148     109.851    -394.918
  C     -417.556     109.504    -394.947
  O     -417.924     110.783    -394.332
  C     -417.593     109.720    -396.467
  O     -418.904     109.376    -396.924
  C     -417.402     111.222    -396.617
  O     -417.855     111.704    -397.872
  C     -418.179     111.716    -395.407
  N     -419.121     116.711    -396.010
  C     -419.715     115.626    -396.534
  N     -419.401     114.322    -396.314
  C     -418.378     114.206    -395.468
  C     -417.648     115.227    -394.885
  C     -418.049     116.543    -395.173
  N     -417.459     117.659    -394.636
  N     -416.629     114.720    -394.094
  C     -416.747     113.405    -394.200
  N     -417.796     113.052    -395.009
  O     -414.228     110.758    -392.752
  O     -413.162     108.635    -393.703
  H     -417.714     112.676    -397.905
  H     -413.827     110.355    -391.954
  H     -420.541     115.817    -397.203
  H     -416.092     112.679    -393.724
  H     -419.268     111.723    -395.590
  H     -416.329     111.467    -396.521
  H     -416.832     109.135    -397.019
  H     -418.320     108.775    -394.646
  H     -416.214     109.167    -393.308
  H     -417.907     118.557    -394.775
  H     -416.804     117.540    -393.875
  H     -416.020     108.006    -394.633
  P     -419.016     108.599    -398.329
  C     -419.411     109.332    -400.786
  O     -419.081     109.719    -399.472
  O     -420.506     107.994    -398.299
  O     -417.985     107.520    -398.520
  H     -420.548     107.189    -398.855
  H     -419.965     110.148    -401.268
  H     -420.036     108.417    -400.791
  H     -418.503     109.151    -401.356
  H     -411.414     111.299    -396.267
  H     -412.609     110.077    -396.632
  H     -411.344     109.744    -395.474

 3  4  5  6  7  8  9  10  11  12  22  25  29  30  31  32 0
 6-311+G(2d,p)
 ****
 33  36  37 0
 6-311+G(2d,p)
 ****
 1  2  13  14  15  16  17  18  19  20  21  23  24  26 0
 3-21G
 ****
 27  28  34  35  38  39  40  41  42  43  44  45  46  47  48 0
 3-21G
 ****


