%nproc=1
%NoSave
%Mem=1900MB
#P OB98/GEN NMR

erre ene a

0 1
  C        5.782       7.273      27.181
  O        5.938       8.562      27.739
  H        6.590       6.633      27.543
  H        5.841       7.330      26.092
  H        4.824       6.836      27.480
  P        4.737       9.603      27.533
  C        3.448       9.254      29.763
  O        3.487       9.029      28.363
  C        2.303      10.206      30.107
  O        2.707      11.561      29.761
  C        0.999       9.909      29.355
  O       -0.100      10.188      30.229
  C        1.012      10.929      28.232
  O       -0.275      11.226      27.708
  C        1.669      12.122      28.933
  N        2.217      13.095      27.991
  C        1.332      13.684      27.093
  O        0.116      13.510      27.091
  N        1.903      14.513      26.161
  C        3.232      14.781      26.027
  O        3.683      15.516      25.157
  C        4.117      14.123      26.998
  C        3.577      13.321      27.918
  O        4.313       9.365      26.010
  O        5.069      11.030      27.818
  H        4.823       9.948      25.418
  H       -0.798      11.633      28.429
  H        1.276      14.947      25.502
  H        5.180      14.304      26.916
  H        4.204      12.803      28.637
  H        0.951      12.617      29.598
  H        1.637      10.568      27.408
  H        0.921       8.884      28.979
  H        2.142      10.186      31.191
  H        4.393       9.704      30.085
  H        3.319       8.297      30.279
  P       -1.225       9.053      30.384
  C       -0.039       8.332      32.606
  O       -0.588       7.947      31.354
  O       -1.187       8.381      28.934
  O       -2.550       9.599      30.797
  H       -0.294       8.358      28.549
  H        0.337       7.467      33.112
  H       -0.799       8.792      33.202
  H        0.759       9.027      32.447

 6  7  8  9  10  11  12  13  14  15  16  27  31  32  33  34  35 0
 6-311+G(2d,p)
 ****
 36  37 0
 6-311+G(2d,p)
 ****
 1  2  3  4  5  17  18  19  20  21  22  23  24  25 0
 3-21G
 ****
 26  28  29  30  38  39  40  41  42  43  44  45 0
 3-21G
 ****


