%nproc=1
%NoSave
%Mem=1900MB
#P OB98/GEN NMR

erre ene a

0 1
  C      228.606      45.038      71.428
  O      227.922      44.228      70.494
  P      228.672      42.937      69.904
  C      228.243      43.467      67.363
  O      227.999      42.625      68.480
  C      227.157      43.264      66.300
  O      227.432      42.029      65.577
  C      225.734      43.176      66.851
  O      224.863      43.790      65.891
  C      225.484      41.676      66.906
  O      224.102      41.345      66.914
  C      226.240      41.219      65.654
  N      226.585      39.795      65.668
  C      225.565      38.871      65.441
  O      224.387      39.182      65.258
  N      225.943      37.550      65.468
  C      227.189      37.075      65.761
  O      227.466      35.883      65.789
  C      228.210      38.101      66.033
  C      227.874      39.382      65.970
  O      228.103      41.786      70.861
  O      230.159      43.060      69.882
  H      227.175      41.923      71.117
  H      224.019      40.381      66.769
  H      225.229      36.866      65.274
  H      229.214      37.756      66.287
  H      228.606      40.155      66.174
  H      225.646      41.440      64.756
  H      225.941      41.263      67.816
  H      225.624      43.671      67.825
  H      227.238      44.087      65.573
  H      229.221      43.219      66.933
  H      228.280      44.510      67.700
  P      223.870      44.958      66.407
  C      221.854      43.678      65.322
  O      222.554      44.899      65.491
  O      224.634      46.244      65.837
  O      223.667      45.006      67.887
  H      224.899      46.160      64.910
  H      220.841      43.910      64.966
  H      221.777      43.125      66.258
  H      222.356      43.070      64.570
  H      227.977      45.851      71.723
  H      229.499      45.422      70.981
  H      228.861      44.454      72.288

 3  4  5  6  7  8  9  10  11  12  13  24  28  29  30  31  32 0
 6-311+G(2d,p)
 ****
 33  34 0
 6-311+G(2d,p)
 ****
 1  2  14  15  16  17  18  19  20  21  22  23  25  26  27 0
 3-21G
 ****
 35  36  37  38  39  40  41  42  43  44  45 0
 3-21G
 ****


