%nproc=1
%NoSave
%Mem=1900MB
#P OB98/GEN NMR

erre ene a

0 1
  C      -77.091      94.071      25.430
  O      -75.861      94.734      25.191
  P      -75.482      96.102      25.947
  C      -74.019      94.679      27.540
  O      -75.036      95.660      27.424
  C      -73.038      95.057      28.653
  O      -73.788      95.265      29.880
  C      -71.965      93.999      28.939
  O      -70.766      94.694      29.300
  C      -72.534      93.255      30.135
  O      -71.535      92.571      30.879
  C      -73.221      94.401      30.886
  N      -74.246      93.928      31.813
  C      -73.931      93.899      33.172
  O      -72.817      94.239      33.571
  N      -74.891      93.484      34.062
  C      -76.034      93.051      33.624
  N      -76.974      92.706      34.547
  C      -76.368      92.961      32.188
  C      -75.446      93.432      31.353
  O      -76.537      97.153      25.903
  O      -74.090      96.540      25.298
  H      -71.940      92.240      31.704
  H      -74.202      97.059      24.462
  H      -77.325      92.567      31.873
  H      -75.614      93.431      30.285
  H      -72.477      94.994      31.431
  H      -73.264      92.514      29.790
  H      -71.764      93.357      28.076
  H      -72.570      96.016      28.390
  H      -76.773      92.941      35.513
  H      -73.475      94.631      26.591
  H      -77.958      92.678      34.305
  H      -74.470      93.699      27.730
  P      -69.372      93.898      29.231
  C      -68.899      94.719      26.813
  O      -69.037      93.619      27.689
  O      -69.809      92.438      29.746
  O      -68.262      94.424      30.082
  H      -69.030      91.991      30.128
  H      -68.666      94.342      25.812
  H      -68.080      95.367      27.140
  H      -69.828      95.290      26.765
  H      -77.142      93.187      24.829
  H      -77.902      94.722      25.177
  H      -77.157      93.804      26.464

 3  4  5  6  7  8  9  10  11  12  13  23  27  28  29  30  32 0
 6-311+G(2d,p)
 ****
 34  35 0
 6-311+G(2d,p)
 ****
 1  2  14  15  16  17  18  19  20  21  22  24  25  26 0
 3-21G
 ****
 31  33  36  37  38  39  40  41  42  43  44  45  46 0
 3-21G
 ****


