%nproc=1
%NoSave
%Mem=1900MB
#P OB98/GEN NMR

erre ene a

0 1
  C       52.545     224.326    -206.023
  O       52.952     223.872    -207.316
  P       54.497     223.465    -207.471
  C       55.140     225.680    -208.657
  O       55.096     224.263    -208.726
  C       56.581     226.182    -208.762
  O       57.375     225.819    -207.615
  C       57.325     225.634    -209.972
  O       56.957     226.356    -211.135
  C       58.778     225.850    -209.568
  O       59.210     227.193    -209.862
  C       58.743     225.618    -208.049
  N       62.787     222.635    -207.394
  C       62.688     223.871    -208.001
  N       63.834     224.399    -208.481
  N       61.566     224.531    -208.125
  C       60.500     223.883    -207.600
  C       60.478     222.671    -206.949
  C       61.725     221.948    -206.822
  O       61.868     220.863    -206.273
  N       59.218     222.367    -206.498
  C       58.464     223.334    -206.986
  N       59.203     224.314    -207.607
  O       54.429     221.946    -207.970
  O       55.273     223.590    -206.203
  H       58.707     227.817    -209.307
  H       54.737     221.350    -207.264
  H       63.675     222.166    -207.334
  H       57.390     223.389    -206.896
  H       59.360     226.353    -207.517
  H       59.453     225.185    -210.111
  H       64.733     223.947    -208.417
  H       57.121     224.563    -210.086
  H       63.786     225.308    -208.923
  H       56.544     227.279    -208.814
  H       54.697     226.023    -207.720
  H       54.525     226.090    -209.465
  P       55.644     225.887    -211.923
  C       57.070     224.591    -213.660
  O       56.075     225.569    -213.430
  O       54.791     227.236    -212.042
  O       54.861     224.814    -211.241
  H       53.855     227.050    -211.834
  H       56.889     224.124    -214.632
  H       57.063     223.816    -212.888
  H       58.051     225.074    -213.677
  H       51.503     224.567    -206.041
  H       53.107     225.197    -205.757
  H       52.720     223.555    -205.303

 3  4  5  6  7  8  9  10  11  12  23  26  30  31 0
 6-311+G(2d,p)
 ****
 33  35  36  37  38 0
 6-311+G(2d,p)
 ****
 1  2  13  14  15  16  17  18  19  20  21  22  24  25 0
 3-21G
 ****
 27  28  29  32  34  39  40  41  42  43  44  45  46  47  48  49 0
 3-21G
 ****


