%nproc=1
%NoSave
%Mem=1900MB
#P OB98/GEN NMR

erre ene a

0 1
  C      537.964     482.566     431.946
  O      539.063     482.183     431.133
  P      538.792     481.085     429.991
  C      537.860     482.785     428.265
  O      537.585     481.675     429.110
  C      537.468     482.474     426.827
  O      538.233     481.358     426.344
  C      536.010     482.080     426.641
  O      535.157     483.213     426.596
  C      536.064     481.379     425.289
  O      536.037     482.359     424.236
  C      537.437     480.681     425.337
  N      536.624     476.012     423.558
  C      536.634     477.224     422.891
  N      536.425     477.179     421.558
  N      536.832     478.374     423.484
  C      537.067     478.257     424.808
  C      537.077     477.116     425.583
  C      536.810     475.858     424.924
  O      536.721     474.759     425.471
  N      537.370     477.402     426.893
  C      537.566     478.704     426.908
  N      537.368     479.274     425.674
  O      538.107     479.885     430.795
  O      539.999     480.640     429.240
  H      535.890     481.881     423.398
  H      538.254     479.042     430.323
  H      536.484     475.156     423.052
  H      537.853     479.271     427.784
  H      537.970     480.785     424.384
  H      535.220     480.703     425.120
  H      536.399     476.319     421.030
  H      535.692     481.367     427.408
  H      536.467     478.055     421.047
  H      537.711     483.348     426.208
  H      538.930     483.010     428.298
  H      537.310     483.658     428.637
  P      533.633     482.982     427.056
  C      534.153     483.275     429.585
  O      533.731     482.408     428.551
  O      533.172     481.719     426.186
  O      532.742     484.160     426.856
  H      532.203     481.729     426.065
  H      533.777     484.292     429.435
  H      535.243     483.294     429.623
  H      533.766     482.902     430.537
  H      538.285     483.297     432.658
  H      537.586     481.708     432.462
  H      537.193     482.981     431.331

 3  4  5  6  7  8  9  10  11  12  23  26  30  31  33  0
 6-311+G(2d,p)
 ****
 35  36  37  38 0
 6-311+G(2d,p)
 ****
 1  2  13  14  15  16  17  18  19  20  21  22  24  25  27  28  29 0
 3-21G
 ****
 32  34  39  40  41  42  43  44  45  46  47  48  49 0
 3-21G
 ****


