%nproc=1
%NoSave
%Mem=1900MB
#P OB98/GEN NMR

erre ene a

0 1
  C     -116.545     242.493      92.024
  O     -115.293     241.877      92.276
  P     -114.015     242.749      92.697
  C     -112.566     242.186      90.642
  O     -113.299     243.198      91.334
  C     -111.070     242.353      90.868
  O     -110.377     241.212      90.307
  C     -110.496     243.605      90.207
  O     -109.469     244.141      91.043
  C     -109.850     243.094      88.933
  O     -108.787     243.957      88.501
  C     -109.407     241.687      89.358
  N     -106.519     239.789      85.553
  C     -106.246     240.704      86.512
  N     -107.069     241.180      87.482
  C     -108.267     240.575      87.418
  C     -108.689     239.627      86.491
  C     -107.755     239.235      85.517
  N     -108.025     238.300      84.540
  N     -110.002     239.257      86.727
  C     -110.361     239.955      87.783
  N     -109.344     240.759      88.246
  O     -113.110     242.107      93.690
  O     -114.635     244.119      93.246
  H     -109.178     244.845      88.337
  H     -114.121     244.435      94.012
  H     -105.244     241.111      86.513
  H     -111.334     239.931      88.254
  H     -108.427     241.704      89.850
  H     -110.598     243.052      88.129
  H     -111.252     244.369      90.011
  H     -110.877     242.360      91.946
  H     -112.787     242.272      89.574
  H     -107.254     237.994      83.968
  H     -108.881     237.755      84.628
  H     -112.897     241.198      90.984
  P     -109.324     245.746      91.054
  C     -107.221     245.502      89.528
  O     -108.490     246.090      89.726
  O     -108.788     246.257      92.342
  O     -110.833     246.189      90.730
  H     -111.318     245.486      90.249
  H     -106.803     245.882      88.591
  H     -107.317     244.414      89.451
  H     -106.552     245.762      90.350
  H     -117.263     241.746      91.759
  H     -116.444     243.191      91.219
  H     -116.873     243.007      92.903

 3  4  5  6  7  8  9  10  11  12  22  25  29  30  31  32 0
 6-311+G(2d,p)
 ****
 33  36  37 0
 6-311+G(2d,p)
 ****
 1  2  13  14  15  16  17  18  19  20  21  23  24  26 0
 3-21G
 ****
 27  28  34  35  38  39  40  41  42  43  44  45  46  47  48 0
 3-21G
 ****


