%nproc=1
%NoSave
%Mem=1900MB
#P OB98/GEN NMR

erre ene a

0 1
  C     -265.885    -885.668    -897.370
  O     -264.672    -886.363    -897.770
  P     -263.737    -887.017    -896.660
  C     -263.842    -889.534    -897.370
  O     -264.164    -888.557    -896.380
  C     -264.247    -890.950    -896.890
  O     -263.466    -891.314    -895.700
  C     -265.764    -891.114    -896.510
  O     -266.101    -892.458    -896.820
  C     -265.709    -890.908    -894.990
  O     -266.855    -891.453    -894.330
  C     -264.423    -891.645    -894.630
  N     -263.821    -891.317    -893.330
  C     -264.289    -892.022    -892.230
  O     -265.193    -892.857    -892.250
  N     -263.690    -891.683    -891.040
  C     -262.783    -890.702    -890.820
  O     -262.317    -890.454    -889.720
  C     -262.340    -889.976    -892.030
  C     -262.914    -890.290    -893.200
  O     -264.284    -886.296    -895.310
  O     -262.254    -886.786    -896.840
  H     -267.625    -890.884    -894.620
  H     -263.513    -885.985    -894.760
  H     -264.051    -892.209    -890.210
  H     -261.596    -889.182    -891.910
  H     -262.575    -889.760    -894.080
  H     -264.558    -892.739    -894.700
  H     -265.644    -889.840    -894.740
  H     -266.367    -890.360    -897.000
  H     -263.946    -891.679    -897.680
  H     -262.768    -889.485    -897.530
  H     -264.340    -889.283    -898.310
  P     -266.639    -892.738    -898.360
  C     -264.401    -893.882    -899.090
  O     -265.335    -892.844    -899.260
  O     -267.246    -891.290    -898.710
  O     -267.639    -893.866    -898.430
  H     -266.658    -890.571    -898.460
  H     -264.903    -894.863    -898.910
  H     -263.737    -893.645    -898.260
  H     -263.831    -894.006    -900.000
  H     -266.385    -885.295    -898.239
  H     -265.632    -884.852    -896.726
  H     -266.530    -886.346    -896.851

 3  4  5  6  7  8  9  10  11  12  13  23  28  29  30  31  32 0
 6-311+G(2d,p)
 ****
 33  34 0
 6-311+G(2d,p)
 ****
 1  2  14  15  16  17  18  19  20  21  22  24  25  26 0
 3-21G
 ****
 27  35  36  37  38  39  40  41  42  43  44  45 0
 3-21G
 ****


