%nproc=1
%NoSave
%Mem=1900MB
#P OB98/GEN NMR

erre ene a

0 1
  C     -107.607    -698.350     999.431
  O     -107.510    -699.761     999.657
  P     -106.140    -700.496     999.257
  C     -105.413    -702.157    1001.132
  O     -105.328    -700.839    1000.597
  C     -106.264    -702.170    1002.405
  O     -107.614    -701.708    1002.153
  C     -106.419    -703.547    1003.024
  O     -105.300    -703.885    1003.822
  C     -107.650    -703.334    1003.902
  O     -107.267    -702.677    1005.123
  C     -108.511    -702.405    1003.041
  N     -113.529    -703.286    1002.447
  C     -112.832    -702.569    1003.367
  N     -111.502    -702.401    1003.462
  C     -110.863    -703.047    1002.485
  C     -111.432    -703.825    1001.479
  C     -112.828    -703.937    1001.483
  N     -113.521    -704.659    1000.549
  N     -110.447    -704.342    1000.653
  C     -109.322    -703.882    1001.147
  N     -109.511    -703.099    1002.251
  O     -105.279    -699.325     998.594
  O     -106.327    -701.642     998.310
  H     -106.919    -701.796    1004.879
  H     -104.731    -699.683     997.877
  H     -113.440    -702.060    1004.118
  H     -108.339    -704.076    1000.734
  H     -109.030    -701.654    1003.642
  H     -108.127    -704.276    1004.189
  H     -106.631    -704.306    1002.258
  H     -105.801    -701.490    1003.131
  H     -104.409    -702.539    1001.345
  H     -114.524    -704.671    1000.592
  H     -113.004    -705.124     999.813
  H     -105.836    -702.820    1000.374
  P     -104.226    -704.903    1003.189
  C     -101.807    -704.078    1003.586
  O     -102.968    -704.012    1002.788
  O     -104.896    -705.296    1001.787
  O     -103.945    -706.108    1004.026
  H     -104.636    -706.204    1001.525
  H     -100.963    -703.665    1003.018
  H     -101.567    -705.110    1003.858
  H     -101.940    -703.489    1004.490
  H     -108.570    -698.004     999.744
  H     -107.476    -698.146     998.389
  H     -106.847    -697.846     999.991

 3  4  5  6  7  8  9  10  11  12  22  25  29  30  31  32 0
 6-311+G(2d,p)
 ****
 33  36  37 0
 6-311+G(2d,p)
 ****
 1  2  13  14  15  16  17  18  19  20  21  23  24  26 0
 3-21G
 ****
 27  28  34  35  38  39  40  41  42  43  44  45  46  47  48 0
 3-21G
 ****


