%nproc=1
%NoSave
%Mem=1900MB
#P OB98/GEN NMR

erre ene a

0 1
  C      117.726      25.413      21.498
  O      117.490      26.702      22.039
  P      116.148      26.925      22.893
  C      117.181      26.742      25.278
  O      116.357      26.154      24.287
  C      116.857      26.168      26.657
  O      117.817      26.689      27.614
  C      115.459      26.511      27.185
  O      115.029      25.403      27.986
  C      115.716      27.713      28.076
  O      114.686      27.917      29.037
  C      117.074      27.345      28.663
  N      117.289      30.944      32.210
  C      116.332      29.969      31.995
  N      115.323      29.914      32.891
  N      116.362      29.126      30.997
  C      117.441      29.292      30.195
  C      118.432      30.241      30.279
  C      118.407      31.142      31.409
  O      119.279      31.963      31.686
  N      119.307      30.149      29.230
  C      118.891      29.095      28.558
  N      117.791      28.514      29.130
  O      115.079      26.022      22.118
  O      115.701      28.345      23.041
  H      114.581      27.087      29.543
  H      114.579      26.552      21.467
  H      117.222      31.554      33.008
  H      119.347      28.705      27.660
  H      116.991      26.648      29.510
  H      115.787      28.620      27.461
  H      115.252      30.512      33.702
  H      114.732      26.717      26.396
  H      114.625      29.189      32.777
  H      116.994      25.078      26.619
  H      116.998      27.821      25.298
  H      118.234      26.575      25.025
  P      113.491      24.963      27.891
  C      114.257      23.151      26.206
  O      113.304      24.144      26.529
  O      112.741      26.349      27.591
  O      112.945      24.321      29.125
  H      111.853      26.334      27.992
  H      113.802      22.441      25.508
  H      114.588      22.607      27.096
  H      115.120      23.616      25.724
  H      118.650      25.416      20.959
  H      116.927      25.153      20.835
  H      117.779      24.697      22.292

 3  4  5  6  7  8  9  10  11  12  23  26  30  31 0
 6-311+G(2d,p)
 ****
 33  35  36  37  38 0
 6-311+G(2d,p)
 ****
 1  2  13  14  15  16  17  18  19  20  21  22  24  25 0
 3-21G
 ****
 27  28  29  32  34  39  40  41  42  43  44  45  46  47  48  49 0
 3-21G
 ****


