%nproc=1
%NoSave
%Mem=1900MB
#P OB98/GEN NMR

erre ene a

0 1
  C     -332.261    -890.200     397.971
  O     -331.859    -890.030     399.313
  H     -333.316    -889.930     397.859
  H     -331.663    -889.550     397.332
  H     -332.111    -891.240     397.660
  P     -332.390    -891.080     400.393
  C     -330.222    -892.510     400.345
  O     -331.627    -892.460     400.088
  C     -329.677    -893.910     400.053
  O     -330.488    -894.870     400.792
  C     -329.716    -894.310     398.572
  O     -328.523    -895.060     398.271
  C     -330.913    -895.230     398.481
  O     -330.820    -896.160     397.398
  C     -330.878    -895.900     399.857
  N     -334.301    -899.440     398.547
  C     -332.988    -899.280     398.222
  N     -332.143    -898.330     398.666
  C     -332.726    -897.530     399.562
  C     -334.056    -897.570     399.995
  C     -334.863    -898.570     399.413
  N     -336.204    -898.700     399.674
  N     -334.295    -896.550     400.885
  C     -333.157    -895.880     400.975
  N     -332.188    -896.450     400.196
  O     -333.892    -891.370     399.882
  O     -332.366    -890.630     401.813
  H     -329.937    -896.590     397.427
  H     -334.499    -890.720     400.273
  H     -332.582    -900.000     397.520
  H     -332.994    -894.980     401.555
  H     -330.149    -896.730     399.914
  H     -331.823    -894.640     398.344
  H     -329.786    -893.450     397.882
  H     -328.661    -893.970     400.453
  H     -330.048    -892.260     401.393
  H     -336.725    -899.380     399.140
  H     -336.656    -897.990     400.239
  H     -329.718    -891.770     399.718
  P     -327.614    -894.570     397.053
  C     -325.486    -894.520     398.557
  O     -326.325    -893.820     397.644
  O     -328.481    -893.360     396.424
  O     -327.327    -895.620     396.032
  H     -328.347    -893.320     395.461
  H     -324.677    -893.887     398.856
  H     -325.096    -895.397     398.083
  H     -326.054    -894.803     399.418

 6  7  8  9  10  11  12  13  14  15  25  28  32  33  34  35 0
 6-311+G(2d,p)
 ****
 36  39  40 0
 6-311+G(2d,p)
 ****
 1  2  3  4  5  16  17  18  19  20  21  22  23  24 0
 3-21G
 ****
 26  27  29  30  31  37  38  41  42  43  44  45  46  47 0
 3-21G
 ****
 48 0
 3-21G
 ****


