%nproc=1
%NoSave
%Mem=1900MB
#P OB98/GEN NMR

erre ene a

0 1
  C     -194.266    -364.035    1191.822
  O     -193.250    -363.746    1190.884
  P     -192.033    -364.777    1190.639
  C     -190.724    -365.434    1188.528
  O     -191.995    -365.061    1189.084
  C     -190.869    -366.715    1187.701
  O     -191.076    -367.875    1188.555
  C     -192.051    -366.727    1186.743
  O     -192.035    -365.791    1185.684
  C     -192.144    -368.183    1186.396
  O     -191.190    -368.542    1185.367
  C     -191.759    -368.859    1187.747
  N     -192.933    -369.429    1188.423
  C     -193.308    -370.685    1188.041
  O     -192.700    -371.369    1187.168
  N     -194.416    -371.222    1188.652
  C     -195.216    -370.573    1189.572
  O     -196.240    -371.055    1190.050
  C     -194.761    -369.196    1189.903
  C     -193.665    -368.688    1189.351
  O     -192.063    -366.015    1191.505
  O     -190.735    -363.865    1190.876
  H     -191.173    -369.516    1185.321
  H     -190.654    -363.113    1190.272
  H     -194.713    -372.154    1188.383
  H     -195.376    -368.662    1190.646
  H     -193.360    -367.720    1189.593
  H     -191.038    -369.687    1187.564
  H     -193.135    -368.465    1186.000
  H     -192.956    -366.480    1187.323
  H     -189.916    -366.885    1187.178
  H     -190.026    -365.624    1189.367
  H     -190.334    -364.604    1187.913
  P     -193.300    -364.977    1185.208
  C     -193.692    -362.619    1184.121
  O     -192.867    -363.421    1184.955
  O     -194.573    -365.195    1185.994
  O     -193.517    -365.493    1183.702
  H     -194.470    -365.474    1183.501
  H     -193.210    -361.627    1184.049
  H     -194.676    -362.471    1184.577
  H     -193.774    -363.061    1183.114
  H     -194.975    -363.234    1191.837
  H     -193.833    -364.146    1192.794
  H     -194.759    -364.943    1191.545

 3  4  5  6  7  8  9  10  11  12  13  23  28  29  30  31  32 0
 6-311+G(2d,p)
 ****
 33  34 0
 6-311+G(2d,p)
 ****
 1  2  14  15  16  17  18  19  20  21  22  24  25  26  27 0
 3-21G
 ****
 35  36  37  38  39  40  41  42  43  44  45 0
 3-21G
 ****


