%nproc=1
%NoSave
%Mem=1900MB
#P OB98/GEN NMR

erre ene a

0 1
  C     -735.591    -227.526    -237.677
  O     -735.099    -226.323    -238.232
  H     -735.084    -227.709    -236.730
  H     -735.381    -228.361    -238.352
  H     -736.668    -227.454    -237.492
  P     -735.871    -225.733    -239.513
  C     -737.168    -223.927    -238.163
  O     -737.237    -225.094    -238.970
  C     -738.482    -223.724    -237.415
  O     -738.821    -224.962    -236.731
  C     -738.431    -222.609    -236.353
  O     -739.708    -221.952    -236.332
  C     -738.251    -223.379    -235.057
  O     -738.679    -222.670    -233.906
  C     -739.075    -224.634    -235.348
  N     -738.733    -225.748    -234.468
  C     -739.731    -226.220    -233.613
  O     -740.894    -225.828    -233.605
  N     -739.335    -227.197    -232.724
  C     -738.073    -227.715    -232.601
  O     -737.780    -228.572    -231.779
  C     -737.070    -227.169    -233.529
  C     -737.439    -226.226    -234.397
  O     -736.355    -227.053    -240.277
  O     -735.064    -224.830    -240.389
  H     -735.678    -227.347    -240.915
  H     -738.562    -223.257    -233.137
  H     -740.044    -227.541    -232.094
  H     -736.060    -227.542    -233.452
  H     -736.712    -225.794    -235.081
  H     -740.153    -224.413    -235.254
  H     -737.189    -223.634    -234.923
  H     -737.642    -221.875    -236.517
  H     -739.275    -223.535    -238.144
  H     -736.979    -223.056    -238.802
  H     -736.333    -224.032    -237.455
  P     -739.923    -220.733    -237.358
  C     -741.436    -222.155    -238.954
  O     -740.240    -221.411    -238.782
  O     -738.429    -220.181    -237.505
  O     -740.926    -219.737    -236.873
  H     -737.762    -220.881    -237.471
  H     -741.482    -222.530    -239.955
  H     -742.279    -221.522    -238.772
  H     -741.449    -222.974    -238.265

 6  7  8  9  10  11  12  13  14  15  16  27  31  32  33  34  35 0
 6-311+G(2d,p)
 ****
 36  37 0
 6-311+G(2d,p)
 ****
 1  2  3  4  5  17  18  19  20  21  22  23  24  25 0
 3-21G
 ****
 26  28  29  30  38  39  40  41  42  43  44  45 0
 3-21G
 ****


