%nproc=1
%NoSave
%Mem=1900MB
#P OB98/GEN NMR

erre ene a

0 1
  C      243.729     372.659     546.600
  O      244.329     373.737     545.914
  H      244.305     371.753     546.403
  H      242.708     372.508     546.241
  H      243.721     372.838     547.678
  P      243.801     375.224     546.197
  C      245.549     375.809     548.001
  O      244.176     375.569     547.717
  C      245.678     376.616     549.292
  O      247.068     376.886     549.572
  C      244.994     377.978     549.243
  O      243.591     377.845     549.373
  C      245.681     378.680     550.407
  O      245.101     378.282     551.658
  C      247.130     378.143     550.276
  N      248.027     379.082     549.599
  C      248.665     380.021     550.408
  O      248.466     380.108     551.619
  N      249.524     380.872     549.765
  C      249.740     380.929     548.418
  O      250.483     381.752     547.885
  C      249.017     379.934     547.612
  C      248.210     379.070     548.230
  O      242.378     375.492     545.827
  O      244.809     376.146     545.359
  H      244.270     378.789     551.757
  H      244.389     376.415     544.521
  H      249.983     381.568     550.331
  H      249.160     379.952     546.540
  H      247.664     378.330     547.652
  H      247.546     377.930     551.272
  H      245.599     379.764     550.353
  H      245.255     378.501     548.315
  H      245.279     376.010     550.116
  H      245.984     376.376     547.171
  H      246.066     374.850     548.090
  P      242.655     379.134     549.497
  C      242.226     379.409     546.990
  O      242.819     379.987     548.146
  O      242.821     379.926     550.754
  O      241.171     378.552     549.382
  H      240.737     378.559     550.262
  H      242.389     380.049     546.148
  H      241.175     379.290     547.150
  H      242.668     378.453     546.802

 6  7  8  9  10  11  12  13  14  15  16  26  31  32  33  34  35 0
 6-311+G(2d,p)
 ****
 36  37 0
 6-311+G(2d,p)
 ****
 1  2  3  4  5  17  18  19  20  21  22  23  24  25 0
 3-21G
 ****
 27  28  29  30  38  39  40  41  42  43  44  45 0
 3-21G
 ****


