%nproc=1
%NoSave
%Mem=1900MB
#P OB98/GEN NMR

erre ene a

0 1
  C     -960.331     921.232     274.882
  O     -961.521     920.434     274.947
  P     -961.431     918.850     274.624
  C     -963.450     918.200     276.171
  O     -962.876     918.208     274.862
  C     -964.968     918.149     276.092
  O     -965.506     919.407     275.639
  C     -965.517     917.104     275.108
  O     -965.440     915.780     275.646
  C     -966.947     917.595     274.920
  O     -967.800     917.145     275.973
  C     -966.766     919.131     274.975
  N     -966.829     919.751     273.644
  C     -968.066     920.208     273.249
  O     -969.093     920.054     273.891
  N     -968.107     920.819     272.006
  C     -967.053     920.948     271.146
  O     -967.150     921.481     270.047
  C     -965.774     920.372     271.597
  C     -965.730     919.794     272.806
  O     -960.618     918.302     275.887
  O     -960.759     918.494     273.347
  H     -968.161     916.284     275.727
  H     -960.123     917.501     275.634
  H     -968.996     921.174     271.698
  H     -964.923     920.430     270.936
  H     -964.792     919.372     273.173
  H     -967.536     919.581     275.616
  H     -967.389     917.235     273.965
  H     -964.979     917.173     274.161
  H     -965.362     917.960     277.108
  H     -963.148     919.099     276.699
  H     -963.053     917.328     276.725
  P     -964.602     914.717     274.793
  C     -962.912     913.727     276.543
  O     -964.147     913.602     275.862
  O     -963.253     915.554     274.483
  O     -965.325     914.232     273.589
  H     -963.052     916.157     275.196
  H     -962.682     914.774     276.749
  H     -962.119     913.269     275.956
  H     -963.009     913.204     277.509
  H     -960.569     922.247     275.122
  H     -959.924     921.185     273.894
  H     -959.613     920.859     275.582

 3  4  5  6  7  8  9  10  11  12  13  23  28  29  30  31  32 0
 6-311+G(2d,p)
 ****
 33  34 0
 6-311+G(2d,p)
 ****
 1  2  14  15  16  17  18  19  20  21  22  24  25  26 0
 3-21G
 ****
 27  35  36  37  38  39  40  41  42  43  44  45 0
 3-21G
 ****


