%nproc=1
%NoSave
%Mem=1900MB
#P OB98/GEN NMR

erre ene a

0 1
  C     -107.534    -303.882       0.909
  O     -107.472    -304.923      -0.044
  H     -106.661    -303.953       1.563
  H     -108.435    -303.988       1.518
  H     -107.527    -302.903       0.423
  P     -108.481    -304.895      -1.288
  C     -106.881    -303.414      -2.665
  O     -108.175    -303.543      -2.096
  C     -106.837    -302.243      -3.650
  O     -107.765    -302.520      -4.742
  C     -107.247    -300.889      -3.035
  O     -106.500    -299.869      -3.711
  C     -108.715    -300.831      -3.411
  O     -109.249    -299.545      -3.240
  C     -108.642    -301.380      -4.837
  N     -109.940    -301.749      -5.388
  C     -110.453    -300.953      -6.405
  O     -109.868    -299.979      -6.875
  N     -111.691    -301.308      -6.871
  C     -112.446    -302.352      -6.424
  O     -113.541    -302.638      -6.892
  C     -111.862    -303.140      -5.327
  C     -110.655    -302.808      -4.867
  O     -109.918    -305.125      -0.963
  O     -107.909    -306.030      -2.262
  H     -108.412    -306.856      -2.132
  H     -110.171    -299.509      -3.572
  H     -112.079    -300.741      -7.609
  H     -112.446    -303.961      -4.936
  H     -110.194    -303.365      -4.057
  H     -108.161    -300.659      -5.506
  H     -109.296    -301.499      -2.769
  H     -107.054    -300.833      -1.960
  H     -105.834    -302.189      -4.092
  H     -106.641    -304.346      -3.187
  H     -106.150    -303.256      -1.865
  P     -105.256    -299.102      -3.047
  C     -103.398    -299.832      -4.678
  O     -103.905    -299.913      -3.354
  O     -105.446    -298.797      -1.597
  O     -105.090    -297.750      -3.889
  H     -104.808    -297.032      -3.291
  H     -102.501    -300.411      -4.753
  H     -103.184    -298.811      -4.916
  H     -104.127    -300.213      -5.363

 6  7  8  9  10  11  12  13  14  15  16  27  31  32  33  34  35 0
 6-311+G(2d,p)
 ****
 36  37 0
 6-311+G(2d,p)
 ****
 1  2  3  4  5  17  18  19  20  21  22  23  24  25 0
 3-21G
 ****
 26  28  29  30  38  39  40  41  42  43  44  45 0
 3-21G
 ****


