%nproc=1
%NoSave
%Mem=1900MB
#P OB98/GEN NMR

erre ene a

0 1
  C      119.701     249.597     605.541
  O      119.940     250.984     605.668
  H      119.388     249.207     606.512
  H      120.618     249.084     605.238
  H      118.908     249.404     604.814
  P      120.265     251.836     604.349
  C      122.841     251.704     604.259
  O      121.705     252.503     604.569
  C      123.907     252.562     603.583
  O      123.455     252.985     602.277
  C      124.241     253.839     604.341
  O      125.061     253.573     605.462
  C      124.904     254.659     603.245
  O      126.275     254.270     603.071
  C      124.059     254.272     602.011
  N      123.046     255.273     601.681
  C      123.190     255.921     600.458
  O      124.126     255.715     599.691
  N      122.227     256.849     600.161
  C      121.230     257.264     600.989
  O      120.444     258.165     600.708
  C      121.138     256.562     602.279
  C      122.034     255.612     602.560
  O      119.195     252.776     603.905
  O      120.557     250.716     603.242
  H      126.293     253.294     603.123
  H      119.791     250.649     602.639
  H      122.324     257.341     599.284
  H      120.350     256.850     602.960
  H      121.991     255.088     603.507
  H      124.706     254.138     601.134
  H      124.901     255.725     603.465
  H      123.317     254.346     604.649
  H      124.806     251.944     603.445
  H      122.530     250.902     603.580
  H      123.224     251.258     605.184
  P      124.984     254.517     606.750
  C      126.007     256.583     605.619
  O      126.161     255.601     606.634
  O      124.908     253.805     608.061
  O      123.667     255.390     606.502
  H      123.031     255.228     607.225
  H      126.846     257.247     605.635
  H      125.109     257.138     605.793
  H      125.951     256.103     604.664

 6  7  8  9  10  11  12  13  14  15  16  26  31  32  33  34  35 0
 6-311+G(2d,p)
 ****
 36  37 0
 6-311+G(2d,p)
 ****
 1  2  3  4  5  17  18  19  20  21  22  23  24  25 0
 3-21G
 ****
 27  28  29  30  38  39  40  41  42  43  44  45 0
 3-21G
 ****


