%nproc=1
%NoSave
%Mem=1900MB
#P OB98/GEN NMR

erre ene a

0 1
  C      -63.175      87.113      50.905
  O      -61.837      86.690      51.165
  P      -61.458      86.190      52.640
  C      -60.508      83.900      51.943
  O      -61.527      84.588      52.660
  C      -59.829      82.858      52.833
  O      -58.988      83.473      53.828
  C      -60.812      82.001      53.611
  O      -61.437      81.050      52.765
  C      -59.913      81.418      54.690
  O      -59.188      80.279      54.198
  C      -58.940      82.585      54.966
  N      -59.225      83.291      56.206
  C      -58.734      82.700      57.375
  O      -58.136      81.626      57.324
  N      -58.949      83.336      58.573
  C      -59.602      84.457      58.599
  N      -59.782      85.044      59.812
  C      -60.146      85.106      57.391
  C      -59.930      84.470      56.241
  O      -62.176      86.873      53.757
  O      -59.879      86.469      52.714
  H      -58.637      79.968      54.943
  H      -59.636      86.659      53.641
  H      -60.678      86.043      57.465
  H      -60.298      84.875      55.305
  H      -57.908      82.213      55.023
  H      -60.485      81.084      55.560
  H      -61.576      82.640      54.073
  H      -59.203      82.220      52.194
  H      -59.409      84.572      60.627
  H      -59.768      84.619      51.582
  H      -60.232      85.940      59.931
  H      -60.952      83.433      51.058
  P      -62.871      80.489      53.207
  C      -64.090      81.590      51.204
  O      -63.985      81.468      52.608
  O      -62.910      80.802      54.779
  O      -63.083      79.034      52.943
  H      -63.408      80.103      55.239
  H      -65.065      82.024      50.963
  H      -64.007      80.619      50.711
  H      -63.308      82.258      50.833
  H      -63.262      87.413      49.882
  H      -63.418      87.939      51.541
  H      -63.849      86.304      51.097

 3  4  5  6  7  8  9  10  11  12  13  23  27  28  29  30  32 0
 6-311+G(2d,p)
 ****
 34  35 0
 6-311+G(2d,p)
 ****
 1  2  14  15  16  17  18  19  20  21  22  24  25  26 0
 3-21G
 ****
 31  33  36  37  38  39  40  41  42  43  44  45  46 0
 3-21G
 ****


