%nproc=1
%NoSave
%Mem=1900MB
#P OB98/GEN NMR

erre ene a

0 1
  C      160.848    -130.255     359.237
  O      161.409    -130.508     357.970
  H      159.810    -130.605     359.277
  H      161.427    -130.789     359.997
  H      160.883    -129.183     359.457
  P      160.629    -129.894     356.706
  C      162.709    -129.812     355.159
  O      161.423    -130.376     355.400
  C      163.434    -130.601     354.074
  O      163.766    -131.925     354.549
  C      162.630    -130.825     352.801
  O      162.620    -129.666     351.964
  C      163.407    -131.966     352.163
  O      164.570    -131.449     351.491
  C      163.834    -132.794     353.386
  N      163.197    -137.815     352.464
  C      164.154    -136.942     352.072
  N      164.256    -135.624     352.343
  C      163.242    -135.220     353.129
  C      162.198    -135.998     353.609
  C      162.184    -137.355     353.243
  N      161.205    -138.236     353.635
  N      161.340    -135.242     354.389
  C      161.858    -134.031     354.383
  N      163.006    -133.968     353.630
  O      160.961    -128.327     356.788
  O      159.152    -130.135     356.685
  H      165.109    -132.220     351.223
  H      160.184    -127.816     356.487
  H      164.946    -137.349     351.453
  H      161.446    -133.179     354.916
  H      164.877    -133.133     353.303
  H      162.827    -132.531     351.427
  H      161.609    -131.157     353.022
  H      164.382    -130.082     353.850
  H      163.297    -129.855     356.086
  H      161.361    -139.221     353.513
  H      160.455    -137.882     354.223
  H      162.595    -128.768     354.858
  P      161.289    -129.386     351.112
  C      161.229    -126.789     351.157
  O      161.532    -127.957     350.408
  O      160.189    -129.067     352.239
  O      160.860    -130.497     350.219
  H      159.297    -129.261     351.893
  H      161.438    -125.922     350.566
  H      161.827    -126.769     352.044
  H      160.193    -126.796     351.425

 6  7  8  9  10  11  12  13  14  15  25  28  32  33  34  35 0
 6-311+G(2d,p)
 ****
 36  39  40 0
 6-311+G(2d,p)
 ****
 1  2  3  4  5  16  17  18  19  20  21  22  23  24 0
 3-21G
 ****
 26  27  29  30  31  37  38  41  42  43  44  45  46  47  48 0
 3-21G
 ****


