%nproc=1
%NoSave
%Mem=1900MB
#P OB98/GEN NMR

erre ene a

0 1
  C     -325.422       4.482     892.705
  O     -324.737       5.701     892.904
  H     -324.972       3.718     893.347
  H     -325.336       4.163     891.664
  H     -326.475       4.595     892.980
  P     -325.226       6.951     892.022
  C     -327.049       7.632     893.729
  O     -326.769       7.145     892.424
  C     -327.209       9.151     893.709
  O     -326.043       9.770     893.137
  C     -328.399       9.645     892.893
  O     -329.590       9.590     893.666
  C     -327.983      11.085     892.618
  O     -328.277      11.900     893.770
  C     -326.461      10.970     892.436
  N     -322.551      11.883     889.238
  C     -322.753      12.233     890.524
  N     -323.842      12.003     891.297
  C     -324.776      11.329     890.614
  C     -324.710      10.908     889.292
  C     -323.524      11.204     888.595
  N     -323.322      10.846     887.279
  N     -325.864      10.245     888.928
  C     -326.593      10.217     890.026
  N     -325.994      10.890     891.064
  O     -324.934       6.867     890.562
  O     -324.515       8.164     892.790
  H     -327.751      11.541     894.510
  H     -324.563       8.032     893.753
  H     -321.940      12.771     891.001
  H     -327.543       9.706     890.133
  H     -325.930      11.814     892.897
  H     -328.514      11.524     891.773
  H     -328.488       9.110     891.943
  H     -327.279       9.495     894.752
  H     -326.239       7.358     894.417
  H     -322.540      11.266     886.803
  H     -324.105      10.460     886.767
  H     -327.970       7.156     894.071
  P     -331.006       9.313     892.976
  C     -330.770       6.752     893.046
  O     -330.835       7.910     892.215
  O     -331.528      10.436     892.149
  O     -331.974       8.942     894.196
  H     -332.908       9.014     893.921
  H     -330.657       5.881     892.435
  H     -331.671       6.672     893.618
  H     -329.934       6.835     893.708

 6  7  8  9  10  11  12  13  14  15  25  28  32  33  34  35 0
 6-311+G(2d,p)
 ****
 36  39  40 0
 6-311+G(2d,p)
 ****
 1  2  3  4  5  16  17  18  19  20  21  22  23  24 0
 3-21G
 ****
 26  27  29  30  31  37  38  41  42  43  44  45  46  47 0
 3-21G
 ****
 48 0
 3-21G
 ****


