%nproc=1
%NoSave
%Mem=1900MB
#P OB98/GEN NMR

erre ene a

0 1
  C       31.976      -6.132       8.506
  O       32.475      -5.454       9.642
  P       31.649      -4.236      10.271
  C       32.821      -1.971       9.956
  O       31.944      -2.935       9.383
  C       34.212      -2.570      10.151
  O       34.619      -3.290       8.969
  C       35.303      -1.536      10.398
  O       35.248      -1.050      11.725
  C       36.553      -2.342      10.065
  O       36.942      -3.158      11.182
  C       36.062      -3.220       8.904
  N       39.878      -3.085       5.524
  C       39.818      -3.531       6.796
  N       38.771      -3.496       7.648
  C       37.713      -2.907       7.068
  C       37.635      -2.372       5.792
  C       38.780      -2.499       4.989
  N       38.834      -2.104       3.670
  N       36.385      -1.822       5.576
  C       35.730      -2.014       6.701
  N       36.469      -2.722       7.606
  O       31.811      -4.047      11.742
  O       30.129      -4.582       9.909
  H       37.197      -2.556      11.906
  H       29.614      -4.678      10.732
  H       40.729      -3.983       7.178
  H       34.721      -1.678       6.901
  H       36.432      -4.249       8.988
  H       37.408      -1.708       9.813
  H       35.206      -0.713       9.681
  H       34.162      -3.285      10.982
  H       32.410      -1.664      10.923
  H       39.652      -2.372       3.146
  H       37.958      -1.953       3.177
  H       32.874      -1.095       9.302
  P       36.135       0.213      12.148
  C       38.152      -0.107      13.699
  O       37.622      -0.326      12.406
  O       35.568       1.067      13.233
  O       36.289       1.038      10.783
  H       36.345       1.990      10.984
  H       38.479       0.932      13.790
  H       39.012      -0.765      13.841
  H       37.406      -0.325      14.469
  H       32.656      -6.910       8.228
  H       31.874      -5.442       7.695
  H       31.021      -6.557       8.735

 3  4  5  6  7  8  9  10  11  12  22  25  29  30  31  32 0
 6-311+G(2d,p)
 ****
 33  36  37 0
 6-311+G(2d,p)
 ****
 1  2  13  14  15  16  17  18  19  20  21  23  24  26 0
 3-21G
 ****
 27  28  34  35  38  39  40  41  42  43  44  45  46  47  48 0
 3-21G
 ****


