%nproc=1
%NoSave
%Mem=1900MB
#P OB98/GEN NMR

erre ene a

0 1
  C      -38.370       3.797     -16.772
  O      -37.996       4.419     -17.985
  H      -37.494       3.299     -16.348
  H      -39.146       3.048     -16.954
  H      -38.731       4.545     -16.062
  P      -39.157       5.162     -18.806
  C      -39.876       2.766     -19.510
  O      -40.289       4.062     -19.099
  C      -41.095       1.861     -19.646
  O      -41.812       1.807     -18.391
  C      -42.113       2.338     -20.673
  O      -41.719       2.037     -22.001
  C      -43.348       1.569     -20.236
  O      -43.358       0.237     -20.776
  C      -43.196       1.542     -18.698
  N      -44.094       2.485     -18.041
  C      -45.428       2.424     -18.435
  O      -45.844       1.635     -19.283
  N      -46.267       3.332     -17.848
  C      -45.903       4.298     -16.955
  O      -46.692       5.128     -16.521
  C      -44.483       4.305     -16.563
  C      -43.655       3.419     -17.123
  O      -38.486       5.409     -20.238
  O      -39.657       6.428     -18.191
  H      -38.209       6.341     -20.319
  H      -44.208      -0.160     -20.503
  H      -47.235       3.311     -18.130
  H      -44.162       5.056     -15.850
  H      -42.599       3.419     -16.866
  H      -43.417       0.539     -18.311
  H      -44.264       2.054     -20.574
  H      -42.303       3.413     -20.549
  H      -40.749       0.845     -19.887
  H      -39.199       2.343     -18.759
  H      -39.341       2.847     -20.461
  P      -42.187       3.019     -23.180
  C      -44.232       1.405     -23.526
  O      -43.747       2.731     -23.421
  O      -41.467       2.351     -24.442
  O      -41.843       4.450     -22.942
  H      -41.432       1.380     -24.391
  H      -45.290       1.424     -23.684
  H      -44.016       0.874     -22.623
  H      -43.757       0.916     -24.350

 6  7  8  9  10  11  12  13  14  15  16  27  31  32  33  34  35 0
 6-311+G(2d,p)
 ****
 36  37 0
 6-311+G(2d,p)
 ****
 1  2  3  4  5  17  18  19  20  21  22  23  24  25 0
 3-21G
 ****
 26  28  29  30  38  39  40  41  42  43  44  45 0
 3-21G
 ****


