%nproc=1
%NoSave
%Mem=1900MB
#P OB98/GEN NMR

erre ene a

0 1
  C      152.603    -248.574    -189.938
  O      152.091    -249.184    -188.771
  H      151.957    -247.734    -190.207
  H      152.608    -249.291    -190.763
  H      153.615    -248.194    -189.771
  P      152.989    -250.268    -188.007
  C      153.063    -252.843    -187.847
  O      152.397    -251.710    -188.390
  C      153.292    -253.899    -188.929
  O      151.995    -254.380    -189.401
  C      154.062    -253.385    -190.162
  O      154.835    -254.480    -190.676
  C      152.919    -253.035    -191.097
  O      153.359    -252.840    -192.415
  C      151.992    -254.228    -190.833
  N      150.646    -254.046    -191.351
  C      150.420    -254.378    -192.682
  O      151.282    -254.834    -193.431
  N      149.148    -254.159    -193.143
  C      148.111    -253.647    -192.419
  O      146.984    -253.491    -192.877
  C      148.418    -253.286    -191.024
  C      149.653    -253.499    -190.564
  O      153.187    -250.036    -186.544
  O      154.381    -250.231    -188.800
  H      155.015    -249.666    -188.319
  H      154.038    -253.507    -192.651
  H      148.967    -254.394    -194.105
  H      147.623    -252.857    -190.432
  H      149.915    -253.244    -189.540
  H      152.419    -255.147    -191.252
  H      152.443    -252.100    -190.779
  H      154.725    -252.546    -189.932
  H      153.805    -254.766    -188.479
  H      152.437    -253.257    -187.050
  H      154.022    -252.529    -187.422
  P      156.439    -254.520    -190.642
  C      158.430    -253.608    -192.002
  O      157.018    -253.767    -191.936
  O      156.998    -255.895    -190.455
  O      156.861    -253.570    -189.423
  H      157.653    -253.945    -188.988
  H      158.689    -253.095    -192.905
  H      158.898    -254.570    -191.991
  H      158.765    -253.039    -191.160

 6  7  8  9  10  11  12  13  14  15  16  27  31  32  33  34  35 0
 6-311+G(2d,p)
 ****
 36  37 0
 6-311+G(2d,p)
 ****
 1  2  3  4  5  17  18  19  20  21  22  23  24  25 0
 3-21G
 ****
 26  28  29  30  38  39  40  41  42  43  44  45 0
 3-21G
 ****


