%nproc=1
%NoSave
%Mem=1900MB
#P OB98/GEN NMR

erre ene a

0 1
  C      115.403      57.268     108.106
  O      115.645      58.566     108.659
  P      115.270      59.836     107.750
  C      113.273      60.370     109.360
  O      113.718      60.125     108.034
  C      111.769      60.637     109.366
  O      111.072      59.643     108.575
  C      111.132      60.576     110.745
  O      111.443      61.729     111.511
  C      109.661      60.429     110.377
  O      109.100      61.707     110.038
  C      109.735      59.536     109.120
  N      109.374      58.149     109.382
  C      108.011      57.880     109.452
  O      107.147      58.747     109.329
  N      107.671      56.576     109.691
  C      108.543      55.545     109.891
  O      108.179      54.394     110.091
  C      109.970      55.901     109.855
  C      110.317      57.166     109.606
  O      115.294      59.187     106.290
  O      116.195      60.988     107.949
  H      114.978      58.268     106.277
  H      108.132      61.578     109.983
  H      106.688      56.358     109.733
  H      110.689      55.112     110.035
  H      111.365      57.448     109.578
  H      109.060      59.920     108.344
  H      109.064      60.016     111.196
  H      111.473      59.678     111.275
  H      111.596      61.621     108.911
  H      113.794      61.239     109.774
  H      113.524      59.507     109.984
  P      112.729      61.637     112.471
  C      114.276      63.071     110.927
  O      114.011      61.823     111.529
  O      112.735      60.078     112.832
  O      112.660      62.544     113.654
  H      112.574      59.509     112.062
  H      115.329      63.102     110.632
  H      114.083      63.897     111.616
  H      113.657      63.186     110.034
  H      115.696      56.519     108.812
  H      115.971      57.152     107.207
  H      114.361      57.163     107.886

 3  4  5  6  7  8  9  10  11  12  13  24  28  29  30  31  32 0
 6-311+G(2d,p)
 ****
 33  34 0
 6-311+G(2d,p)
 ****
 1  2  14  15  16  17  18  19  20  21  22  23  25  26  27 0
 3-21G
 ****
 35  36  37  38  39  40  41  42  43  44  45 0
 3-21G
 ****


