%nproc=1
%NoSave
%Mem=1900MB
#P OB98/GEN NMR

erre ene a

0 1
  C      240.112     431.295     445.317
  O      241.209     430.415     445.187
  P      242.501     430.869     444.355
  C      242.496     429.582     442.126
  O      242.976     429.619     443.469
  C      243.263     428.537     441.316
  O      244.667     428.860     441.284
  C      243.184     427.125     441.891
  O      241.928     426.539     441.600
  C      244.371     426.461     441.212
  O      244.023     426.044     439.880
  C      245.391     427.609     441.165
  N      250.051     425.884     442.310
  C      249.258     425.692     441.236
  N      248.006     426.154     441.019
  C      247.584     426.868     442.078
  C      248.267     427.120     443.256
  C      249.574     426.610     443.353
  N      250.417     426.850     444.415
  N      247.479     427.867     444.118
  C      246.347     428.049     443.471
  N      246.390     427.525     442.208
  O      243.576     431.526     445.151
  O      241.910     431.881     443.262
  H      244.782     425.547     439.525
  H      242.321     432.757     443.381
  H      249.689     425.091     440.434
  H      245.482     428.568     443.863
  H      245.923     427.644     440.208
  H      244.722     425.579     441.747
  H      243.355     427.150     442.973
  H      242.885     428.557     440.285
  H      242.640     430.572     441.684
  H      251.376     426.566     444.313
  H      250.192     427.624     445.034
  H      241.425     429.347     442.130
  P      241.193     425.640     442.704
  C      240.728     424.132     440.681
  O      240.242     424.613     441.919
  O      240.537     426.394     443.815
  O      242.360     424.687     443.253
  H      242.194     424.487     444.195
  H      240.596     424.899     439.913
  H      240.158     423.244     440.402
  H      241.785     423.867     440.757
  H      239.347     430.827     445.900
  H      239.727     431.531     444.347
  H      240.431     432.194     445.802

 3  4  5  6  7  8  9  10  11  12  22  25  29  30  31  32 0
 6-311+G(2d,p)
 ****
 33  36  37 0
 6-311+G(2d,p)
 ****
 1  2  13  14  15  16  17  18  19  20  21  23  24  26 0
 3-21G
 ****
 27  28  34  35  38  39  40  41  42  43  44  45  46  47  48 0
 3-21G
 ****


