%nproc=1
%NoSave
%Mem=1900MB
#P OB98/GEN NMR

erre ene a

0 1
  C       44.680    -147.649    -150.377
  O       46.003    -148.113    -150.226
  H       44.075    -148.460    -150.793
  H       44.643    -146.803    -151.068
  H       44.262    -147.361    -149.409
  P       47.152    -147.068    -149.812
  C       48.306    -148.709    -148.214
  O       48.424    -147.983    -149.432
  C       47.876    -150.156    -148.464
  O       48.760    -150.764    -149.442
  C       47.902    -151.035    -147.207
  O       46.691    -151.792    -147.132
  C       49.089    -151.958    -147.438
  O       48.978    -153.173    -146.702
  C       49.069    -152.088    -148.965
  N       50.328    -152.579    -149.512
  C       50.640    -153.918    -149.257
  O       49.887    -154.610    -148.569
  N       51.813    -154.431    -149.749
  C       52.630    -153.663    -150.396
  N       53.781    -154.230    -150.850
  C       52.364    -152.231    -150.649
  C       51.204    -151.762    -150.190
  O       46.753    -146.083    -148.766
  O       47.595    -146.392    -151.193
  H       48.935    -152.954    -145.745
  H       48.054    -145.535    -151.007
  H       53.082    -151.629    -151.184
  H       50.920    -150.725    -150.338
  H       48.265    -152.764    -149.287
  H       50.011    -151.454    -147.121
  H       48.012    -150.469    -146.286
  H       46.879    -150.144    -148.920
  H       53.924    -155.213    -150.657
  H       47.579    -148.201    -147.572
  H       54.492    -153.726    -151.359
  H       49.284    -148.709    -147.719
  P       46.169    -152.143    -145.654
  C       43.617    -152.489    -145.377
  O       44.851    -153.049    -145.800
  O       45.615    -150.739    -145.121
  O       47.229    -152.698    -144.760
  H       46.268    -150.323    -144.530
  H       42.832    -153.199    -145.532
  H       43.414    -151.604    -145.943
  H       43.675    -152.242    -144.338

 6  7  8  9  10  11  12  13  14  15  16  26  30  31  32  33  35 0
 6-311+G(2d,p)
 ****
 37  38 0
 6-311+G(2d,p)
 ****
 1  2  3  4  5  17  18  19  20  21  22  23  24  25 0
 3-21G
 ****
 27  28  29  34  36  39  40  41  42  43  44  45  46 0
 3-21G
 ****


