%nproc=1
%NoSave
%Mem=1900MB
#P OB98/GEN NMR

erre ene a

0 1
  C     -811.096    -201.233     -19.552
  O     -810.066    -200.974     -20.489
  H     -811.576    -202.180     -19.820
  H     -811.839    -200.436     -19.582
  H     -810.681    -201.322     -18.547
  P     -809.244    -199.609     -20.280
  C     -809.820    -197.081     -20.425
  O     -810.301    -198.413     -20.501
  C     -810.591    -196.182     -21.383
  O     -811.973    -196.102     -20.994
  C     -810.075    -194.750     -21.454
  O     -808.964    -194.649     -22.338
  C     -811.301    -194.016     -21.978
  O     -811.432    -194.152     -23.410
  C     -812.447    -194.744     -21.245
  N     -813.931    -190.419     -19.111
  C     -813.683    -190.715     -20.435
  N     -813.803    -189.705     -21.317
  N     -813.341    -191.904     -20.853
  C     -813.236    -192.818     -19.863
  C     -813.469    -192.641     -18.514
  C     -813.867    -191.333     -18.059
  O     -814.174    -191.014     -16.913
  N     -813.269    -193.808     -17.822
  C     -812.877    -194.673     -18.739
  N     -812.824    -194.121     -19.982
  O     -808.324    -199.523     -21.594
  O     -808.436    -199.533     -19.035
  H     -810.710    -193.670     -23.839
  H     -807.496    -199.067     -21.371
  H     -814.207    -189.486     -18.857
  H     -812.620    -195.708     -18.550
  H     -813.347    -194.813     -21.854
  H     -811.248    -192.944     -21.767
  H     -813.727    -188.736     -21.027
  H     -809.812    -194.376     -20.453
  H     -813.591    -189.909     -22.288
  H     -810.545    -196.652     -22.372
  H     -808.753    -197.074     -20.684
  H     -809.926    -196.722     -19.392
  P     -808.119    -193.270     -22.321
  C     -808.575    -190.845     -23.124
  O     -809.105    -192.141     -22.865
  O     -807.086    -193.471     -23.529
  O     -807.433    -192.973     -21.027
  H     -806.359    -192.827     -23.443
  H     -809.355    -190.205     -23.481
  H     -807.805    -190.916     -23.864
  H     -808.166    -190.440     -22.222

 6  7  8  9  10  11  12  13  14  15  26  29  33  34 0
 6-311+G(2d,p)
 ****
 36  38  39  40  41 0
 6-311+G(2d,p)
 ****
 1  2  3  4  5  16  17  18  19  20  21  22  23  24  25 0
 3-21G
 ****
 27  28  30  31  32  35  37  42  43  44  45  46  47 0
 3-21G
 ****
 48  49 0
 3-21G
 ****


