%nproc=1
%NoSave
%Mem=1900MB
#P OB98/GEN NMR

erre ene a

0 1
  C     -106.862    -553.795     -76.721
  O     -107.423    -552.566     -76.305
  H     -107.332    -554.604     -76.153
  H     -105.786    -553.803     -76.522
  H     -107.048    -553.956     -77.785
  P     -106.874    -551.248     -77.039
  C     -107.534    -550.088     -79.275
  O     -107.939    -550.901     -78.189
  C     -108.636    -550.034     -80.343
  O     -108.846    -551.381     -80.866
  C     -109.997    -549.551     -79.810
  O     -110.696    -548.917     -80.893
  C     -110.679    -550.869     -79.465
  O     -112.060    -550.686     -79.261
  C     -110.242    -551.701     -80.668
  N     -113.623    -555.523     -80.283
  C     -113.781    -554.205     -80.544
  N     -112.830    -553.253     -80.641
  C     -111.603    -553.777     -80.467
  C     -111.286    -555.101     -80.208
  C     -112.367    -556.001     -80.111
  N     -112.212    -557.343     -79.844
  N     -109.916    -555.261     -80.086
  C     -109.419    -554.051     -80.272
  N     -110.402    -553.126     -80.493
  O     -105.598    -551.781     -77.846
  O     -106.528    -550.108     -76.137
  H     -112.530    -550.574     -80.115
  H     -104.787    -551.631     -77.324
  H     -114.804    -553.872     -80.682
  H     -108.368    -553.795     -80.244
  H     -110.779    -551.417     -81.578
  H     -110.274    -551.285     -78.537
  H     -109.913    -548.855     -78.971
  H     -108.292    -549.418     -81.182
  H     -106.619    -550.509     -79.708
  H     -107.325    -549.073     -78.919
  H     -113.034    -557.916     -79.776
  H     -111.280    -557.708     -79.694
  P     -110.348    -547.392     -81.266
  C     -108.394    -546.142     -82.486
  O     -109.028    -547.377     -82.178
  O     -109.789    -546.829     -79.871
  O     -111.492    -546.565     -81.750
  H     -109.952    -545.868     -79.817
  H     -107.536    -546.325     -83.099
  H     -108.089    -545.662     -81.580
  H     -109.080    -545.510     -83.011

 6  7  8  9  10  11  12  13  14  15  25  28  32  33  34  35 0
 6-311+G(2d,p)
 ****
 36  37  40 0
 6-311+G(2d,p)
 ****
 1  2  3  4  5  16  17  18  19  20  21  22  23  24 0
 3-21G
 ****
 26  27  29  30  31  38  39 41  42  43  44  45  46  47  48 0
 3-21G
 ****


