%nproc=1
%NoSave
%Mem=1900MB
#P OB98/GEN NMR

erre ene a

0 1
  C      544.261     418.127    -912.106
  O      544.678     418.144    -913.469
  P      543.796     417.280    -914.496
  C      544.379     419.043    -916.311
  O      544.244     417.665    -915.988
  C      545.253     419.225    -917.547
  O      546.610     418.778    -917.344
  C      544.748     418.457    -918.771
  O      543.685     419.172    -919.376
  C      546.002     418.392    -919.637
  O      546.164     419.595    -920.416
  C      547.122     418.266    -918.596
  N      550.614     414.896    -920.070
  C      550.297     416.134    -920.607
  N      551.034     416.537    -921.662
  N      549.350     416.902    -920.133
  C      548.707     416.365    -919.073
  C      548.946     415.170    -918.442
  C      549.989     414.319    -918.973
  O      550.323     413.236    -918.521
  N      548.117     414.997    -917.354
  C      547.289     416.030    -917.417
  N      547.646     416.926    -918.399
  O      542.333     417.924    -914.353
  O      543.785     415.817    -914.186
  H      547.033     419.568    -920.862
  H      541.734     417.295    -913.905
  H      551.347     414.342    -920.481
  H      546.458     416.193    -916.757
  H      547.990     418.894    -918.862
  H      545.947     417.574    -920.350
  H      551.782     416.005    -922.077
  H      544.438     417.453    -918.469
  H      550.819     417.450    -922.061
  H      545.289     420.299    -917.775
  H      544.819     419.584    -915.469
  H      543.379     419.462    -916.471
  P      542.204     418.560    -919.248
  C      540.836     420.762    -919.202
  O      541.194     419.605    -919.920
  O      541.898     418.685    -917.675
  O      542.075     417.151    -919.700
  H      541.490     417.864    -917.345
  H      540.614     421.562    -919.914
  H      541.640     421.092    -918.540
  H      539.934     420.568    -918.618
  H      544.922     418.735    -911.523
  H      544.283     417.122    -911.739
  H      543.265     418.511    -912.033

 3  4  5  6  7  8  9  10  11  12  23  26  30  31 0
 6-311+G(2d,p)
 ****
 33  35  36  37  38 0
 6-311+G(2d,p)
 ****
 1  2  13  14  15  16  17  18  19  20  21  22  24  25 0
 3-21G
 ****
 27  28  29  32  34  39  40  41  42  43  44  45  46  47  48  49 0
 3-21G
 ****


