%nproc=1
%NoSave
%Mem=1900MB
#P OB98/GEN NMR

erre ene a

0 1
  C      -20.735    -218.800    -157.135
  O      -20.576    -218.412    -158.485
  H      -19.862    -219.381    -156.830
  H      -21.628    -219.421    -157.027
  H      -20.817    -217.920    -156.491
  P      -21.696    -217.447    -159.103
  C      -20.204    -216.831    -161.146
  O      -21.423    -217.395    -160.684
  C      -19.130    -217.916    -161.233
  O      -19.640    -219.008    -162.045
  C      -17.829    -217.431    -161.880
  O      -16.722    -218.062    -161.232
  C      -17.942    -217.934    -163.309
  O      -16.691    -218.083    -163.965
  C      -18.681    -219.258    -163.094
  N      -19.348    -219.732    -164.304
  C      -18.629    -219.683    -165.494
  O      -17.451    -219.340    -165.587
  N      -19.321    -220.050    -166.619
  C      -20.631    -220.427    -166.672
  O      -21.202    -220.722    -167.714
  C      -21.340    -220.452    -165.385
  C      -20.677    -220.107    -164.279
  O      -21.247    -215.993    -158.608
  O      -23.103    -217.770    -158.731
  H      -21.662    -215.782    -157.750
  H      -16.097    -218.586    -163.373
  H      -18.813    -220.021    -167.489
  H      -22.384    -220.737    -165.389
  H      -21.176    -220.101    -163.315
  H      -17.988    -220.026    -162.727
  H      -18.553    -217.241    -163.901
  H      -17.711    -216.347    -161.839
  H      -18.949    -218.318    -160.229
  H      -19.879    -216.057    -160.445
  H      -20.366    -216.377    -162.129
  P      -15.735    -217.125    -160.376
  C      -14.453    -218.797    -158.828
  O      -14.461    -218.037    -160.024
  O      -16.532    -217.004    -158.998
  O      -15.431    -215.831    -161.052
  H      -16.995    -217.821    -158.743
  H      -13.534    -219.340    -158.756
  H      -15.273    -219.484    -158.837
  H      -14.546    -218.141    -157.988

 6  7  8  9  10  11  12  13  14  15  16  27  31  32  33  34  35 0
 6-311+G(2d,p)
 ****
 36  37 0
 6-311+G(2d,p)
 ****
 1  2  3  4  5  17  18  19  20  21  22  23  24  25 0
 3-21G
 ****
 26  28  29  30  38  39  40  41  42  43  44  45 0
 3-21G
 ****


