%nproc=1
%NoSave
%Mem=1900MB
#P OB98/GEN NMR

erre ene a

0 1
  C      617.329     372.094    1167.062
  O      617.256     371.444    1168.345
  P      617.971     370.028    1168.656
  C      616.166     368.315    1167.971
  O      616.857     368.958    1169.048
  C      615.613     366.950    1168.385
  O      616.689     366.021    1168.659
  C      614.754     366.962    1169.643
  O      613.459     367.500    1169.392
  C      614.786     365.488    1170.034
  O      613.803     364.743    1169.287
  C      616.215     365.072    1169.622
  N      617.109     364.993    1170.775
  C      617.381     363.696    1171.247
  O      616.829     362.722    1170.739
  N      618.265     363.570    1172.315
  C      618.757     364.636    1172.881
  N      619.618     364.432    1173.903
  C      618.422     366.002    1172.463
  C      617.618     366.103    1171.408
  O      619.114     370.135    1169.635
  O      618.508     369.518    1167.230
  H      612.926     365.078    1169.560
  H      619.315     368.996    1167.370
  H      618.841     366.869    1172.974
  H      617.313     367.092    1171.018
  H      616.204     364.097    1169.124
  H      614.565     365.321    1171.090
  H      615.260     367.554    1170.422
  H      615.022     366.555    1167.531
  H      619.836     363.474    1174.176
  H      616.868     368.188    1167.128
  H      620.063     365.191    1174.410
  H      615.360     368.976    1167.641
  P      613.168     369.033    1169.711
  C      611.743     368.595    1171.805
  O      611.756     369.108    1170.488
  O      613.299     369.990    1168.569
  O      614.214     369.396    1170.890
  H      614.458     370.334    1170.816
  H      610.869     369.021    1172.321
  H      612.648     368.810    1172.338
  H      611.592     367.490    1171.743
  H      616.782     373.013    1167.096
  H      616.907     371.455    1166.314
  H      618.352     372.297    1166.822

 3  4  5  6  7  8  9  10  11  12  13  23  27  28  29  30  32 0
 6-311+G(2d,p)
 ****
 34  35 0
 6-311+G(2d,p)
 ****
 1  2  14  15  16  17  18  19  20  21  22  24  25  26 0
 3-21G
 ****
 31  33  36  37  38  39  40  41  42  43  44  45  46 0
 3-21G
 ****


