%nproc=1
%NoSave
%Mem=1900MB
#P OB98/GEN NMR

erre ene a

0 1
  C      152.299     106.383     288.653
  O      151.325     106.694     289.644
  P      151.080     108.243     289.984
  C      152.501     110.080     291.203
  O      152.223     108.706     291.007
  C      153.458     110.286     292.393
  O      152.872     109.663     293.563
  C      154.836     109.648     292.241
  O      155.727     110.258     293.178
  C      154.561     108.220     292.660
  O      155.762     107.531     292.996
  C      153.547     108.402     293.813
  N      152.558     107.305     293.910
  C      152.958     106.103     294.485
  O      154.087     105.891     294.922
  N      152.016     105.109     294.517
  C      150.731     105.208     294.076
  O      149.958     104.260     294.049
  C      150.323     106.539     293.607
  C      151.238     107.504     293.535
  O      149.745     108.227     290.864
  O      150.947     109.106     288.775
  H      156.129     107.980     293.793
  H      148.992     108.550     290.338
  H      152.311     104.211     294.870
  H      149.289     106.675     293.310
  H      150.958     108.490     293.172
  H      154.058     108.464     294.782
  H      154.095     107.677     291.832
  H      155.255     109.706     291.234
  H      153.548     111.358     292.600
  H      151.570     110.627     291.365
  H      152.958     110.495     290.296
  P      157.218     110.586     292.691
  C      159.458     109.327     292.639
  O      158.104     109.296     293.045
  O      157.777     111.894     293.138
  O      157.098     110.503     291.093
  H      157.853     110.968     290.685
  H      160.045     108.721     293.332
  H      159.854     110.347     292.636
  H      159.543     108.904     291.635
  H      152.357     105.322     288.530
  H      153.253     106.759     288.960
  H      152.020     106.835     287.724

 3  4  5  6  7  8  9  10  11  12  13  23  28  29  30  31  32 0
 6-311+G(2d,p)
 ****
 33  34 0
 6-311+G(2d,p)
 ****
 1  2  14  15  16  17  18  19  20  21  22  24  25  26  27 0
 3-21G
 ****
 35  36  37  38  39  40  41  42  43  44  45 0
 3-21G
 ****


