%nproc=1
%NoSave
%Mem=1900MB
#P OB98/GEN NMR

erre ene a

0 1
  C      218.440      65.031    -803.271
  O      219.350      64.164    -802.620
  P      219.610      62.719    -803.274
  C      220.327      61.749    -800.963
  O      219.483      61.634    -802.101
  C      219.719      60.977    -799.788
  O      218.519      61.638    -799.311
  C      219.290      59.557    -800.144
  O      220.402      58.674    -800.185
  C      218.306      59.245    -799.023
  O      218.984      58.798    -797.848
  C      217.638      60.618    -798.794
  N      216.306      60.706    -799.369
  C      215.320      59.937    -798.747
  O      215.552      59.203    -797.787
  N      214.066      60.011    -799.293
  C      213.723      60.706    -800.419
  O      212.596      60.691    -800.901
  C      214.809      61.478    -801.056
  C      216.036      61.438    -800.511
  O      221.175      62.728    -803.623
  O      218.767      62.429    -804.474
  H      219.673      59.461    -797.643
  H      221.327      62.229    -804.452
  H      213.337      59.481    -798.851
  H      214.565      62.055    -801.945
  H      216.846      61.985    -800.975
  H      217.555      60.812    -797.715
  H      217.600      58.452    -799.309
  H      218.756      59.558    -801.109
  H      220.446      60.963    -798.962
  H      220.435      62.807    -800.697
  H      221.318      61.355    -801.207
  P      220.146      57.206    -800.797
  C      222.253      56.512    -799.415
  O      220.929      56.213    -799.812
  O      221.041      57.279    -802.121
  O      218.703      56.920    -801.028
  H      221.830      57.840    -802.005
  H      222.408      57.585    -799.278
  H      222.951      56.134    -800.154
  H      222.446      56.010    -798.459
  H      218.369      65.949    -802.725
  H      217.477      64.568    -803.317
  H      218.786      65.232    -804.263

 3  4  5  6  7  8  9  10  11  12  13  23  28  29  30  31  32 0
 6-311+G(2d,p)
 ****
 33  34 0
 6-311+G(2d,p)
 ****
 1  2  14  15  16  17  18  19  20  21  22  24  25  26 0
 3-21G
 ****
 27  35  36  37  38  39  40  41  42  43  44  45 0
 3-21G
 ****


