%nproc=1
%NoSave
%Mem=1900MB
#P OB98/GEN NMR

erre ene a

0 1
  C      437.944     -62.070      47.973
  O      439.195     -62.411      47.413
  H      437.369     -61.513      47.229
  H      438.076     -61.442      48.857
  H      437.388     -62.973      48.239
  P      440.277     -63.137      48.345
  C      440.007     -65.298      49.740
  O      439.811     -64.664      48.485
  C      439.183     -66.587      49.836
  O      437.790     -66.278      49.543
  C      439.622     -67.680      48.848
  O      439.333     -68.945      49.453
  C      438.694     -67.418      47.679
  O      438.682     -68.498      46.778
  C      437.395     -67.102      48.425
  N      436.411     -66.442      47.582
  C      435.298     -67.206      47.216
  O      435.193     -68.372      47.597
  N      434.347     -66.640      46.408
  C      434.524     -65.442      45.947
  N      433.550     -64.943      45.138
  C      435.714     -64.623      46.258
  C      436.607     -65.178      47.078
  O      440.582     -62.454      49.637
  O      441.579     -63.240      47.419
  H      438.237     -69.280      47.173
  H      442.237     -62.578      47.701
  H      435.824     -63.637      45.831
  H      437.514     -64.656      47.362
  H      436.946     -68.017      48.834
  H      439.025     -66.544      47.112
  H      440.683     -67.619      48.589
  H      439.216     -66.950      50.872
  H      432.756     -65.544      44.943
  H      439.691     -64.594      50.519
  H      433.590     -64.033      44.705
  H      441.067     -65.526      49.885
  P      439.977     -69.413      50.845
  C      439.417     -69.018      53.335
  O      438.904     -69.216      52.020
  O      441.312     -68.803      51.133
  O      440.109     -71.007      50.726
  H      440.879     -71.303      51.247
  H      438.604     -68.901      54.021
  H      440.027     -68.139      53.351
  H      440.005     -69.866      53.620

 6  7  8  9  10  11  12  13  14  15  16  26  30  31  32  33  35 0
 6-311+G(2d,p)
 ****
 37  38 0
 6-311+G(2d,p)
 ****
 1  2  3  4  5  17  18  19  20  21  22  23  24  25 0
 3-21G
 ****
 27  28  29  34  36  39  40  41  42  43  44  45  46 0
 3-21G
 ****


