%nproc=1
%NoSave
%Mem=1900MB
#P OB98/GEN NMR

erre ene a

0 1
  C       34.215     -66.945     121.725
  O       34.570     -68.280     121.425
  H       34.019     -66.416     120.788
  H       35.040     -66.447     122.244
  H       33.315     -66.918     122.343
  P       34.735     -69.281     122.665
  C       37.300     -69.725     123.012
  O       36.152     -68.958     123.353
  C       37.933     -69.175     121.735
  O       38.203     -67.763     121.853
  C       39.292     -69.776     121.413
  O       39.208     -71.113     120.975
  C       39.775     -68.806     120.345
  O       39.172     -69.090     119.074
  C       39.261     -67.455     120.905
  N       40.320     -66.664     121.516
  C       40.921     -65.706     120.686
  O       40.539     -65.564     119.524
  N       41.955     -64.957     121.191
  C       42.339     -65.125     122.418
  N       43.374     -64.359     122.853
  C       41.717     -66.105     123.332
  C       40.729     -66.836     122.818
  O       35.001     -70.685     121.949
  O       33.598     -69.286     123.635
  H       39.475     -69.983     118.821
  H       35.732     -70.665     121.309
  H       42.065     -66.207     124.350
  H       40.220     -67.577     123.420
  H       38.807     -66.856     120.107
  H       40.857     -68.858     120.202
  H       39.961     -69.685     122.278
  H       37.222     -69.320     120.912
  H       43.790     -63.713     122.191
  H       37.043     -70.781     122.890
  H       43.780     -64.425     123.775
  H       38.006     -69.651     123.845
  P       40.435     -72.122     121.189
  C       41.600     -73.025     119.080
  O       41.420     -71.903     119.940
  O       40.055     -73.542     121.438
  O       41.256     -71.448     122.389
  H       41.585     -70.550     122.205
  H       42.272     -72.764     118.289
  H       40.656     -73.312     118.666
  H       42.007     -73.841     119.639

 6  7  8  9  10  11  12  13  14  15  16  26  30  31  32  33  35 0
 6-311+G(2d,p)
 ****
 37  38 0
 6-311+G(2d,p)
 ****
 1  2  3  4  5  17  18  19  20  21  22  23  24  25 0
 3-21G
 ****
 27  28  29  34  36  39  40  41  42  43  44  45  46 0
 3-21G
 ****


