%nproc=1
%NoSave
%Mem=1900MB
#P OB98/GEN NMR

erre ene a

0 1
  C     -551.190    -198.666     -69.543
  O     -550.627    -198.948     -70.825
  P     -551.020    -197.930     -72.009
  C     -553.334    -198.695     -72.876
  O     -552.618    -197.800     -72.042
  C     -554.846    -198.451     -72.805
  O     -555.156    -197.039     -72.989
  C     -555.650    -199.220     -73.854
  O     -556.904    -199.572     -73.254
  C     -555.895    -198.175     -74.929
  O     -556.971    -198.542     -75.782
  C     -556.136    -196.955     -74.043
  N     -558.671    -193.550     -76.787
  C     -559.069    -194.783     -76.304
  N     -560.347    -195.133     -76.543
  N     -558.284    -195.592     -75.641
  C     -557.042    -195.086     -75.441
  C     -556.531    -193.878     -75.853
  C     -557.398    -193.004     -76.613
  O     -557.096    -191.905     -77.061
  N     -555.226    -193.710     -75.435
  C     -554.947    -194.854     -74.825
  N     -556.027    -195.692     -74.755
  O     -550.669    -198.757     -73.333
  O     -550.276    -196.634     -71.949
  H     -557.796    -198.504     -75.252
  H     -549.815    -198.469     -73.692
  H     -559.309    -192.974     -77.304
  H     -553.993    -195.105     -74.397
  H     -557.139    -196.959     -73.584
  H     -554.995    -198.044     -75.542
  H     -561.023    -194.532     -77.003
  H     -555.152    -200.119     -74.241
  H     -560.682    -196.015     -76.163
  H     -555.186    -198.729     -71.799
  H     -553.127    -199.731     -72.582
  H     -552.966    -198.596     -73.904
  P     -557.136    -201.111     -72.852
  C     -558.096    -202.155     -75.024
  O     -556.971    -201.975     -74.184
  O     -558.713    -201.168     -72.570
  O     -556.361    -201.568     -71.665
  H     -558.884    -201.752     -71.807
  H     -557.751    -202.328     -76.047
  H     -558.752    -201.276     -75.011
  H     -558.662    -203.027     -74.684
  H     -550.862    -199.403     -68.840
  H     -552.258    -198.687     -69.610
  H     -550.872    -197.697     -69.219

 3  4  5  6  7  8  9  10  11  12  23  26  30  31 0
 6-311+G(2d,p)
 ****
 33  35  36  37  38 0
 6-311+G(2d,p)
 ****
 1  2  13  14  15  16  17  18  19  20  21  22  24  25 0
 3-21G
 ****
 27  28  29  32  34  39  40  41  42  43  44  45  46  47  48  49 0
 3-21G
 ****


