%nproc=1
%NoSave
%Mem=1900MB
#P OB98/GEN NMR

erre ene a

0 1
  C      -90.971     137.900      75.959
  O      -91.093     138.448      74.663
  H      -91.895     137.368      76.204
  H      -90.817     138.694      76.694
  H      -90.139     137.195      75.992
  P      -89.859     139.325      74.129
  C      -90.902     141.477      75.144
  O      -89.773     140.619      75.074
  C      -90.527     142.863      74.629
  O      -91.621     143.782      74.847
  C      -89.329     143.483      75.333
  O      -88.100     142.957      74.868
  C      -89.515     144.950      74.980
  O      -88.970     145.252      73.685
  C      -91.052     145.100      74.981
  N      -91.536     145.785      76.176
  C      -91.146     147.115      76.308
  O      -90.437     147.696      75.486
  N      -91.565     147.750      77.445
  C      -92.289     147.187      78.456
  O      -92.571     147.794      79.485
  C      -92.685     145.784      78.254
  C      -92.290     145.154      77.145
  O      -90.402     139.904      72.739
  O      -88.577     138.581      73.968
  H      -90.014     139.404      71.997
  H      -89.231     146.173      73.487
  H      -91.283     148.711      77.565
  H      -93.267     145.309      79.035
  H      -92.553     144.112      76.985
  H      -91.380     145.676      74.106
  H      -89.014     145.602      75.694
  H      -89.426     143.369      76.420
  H      -90.346     142.792      73.547
  H      -91.234     141.561      76.185
  H      -91.715     141.047      74.551
  P      -86.938     142.665      75.936
  C      -85.895     145.060      75.648
  O      -86.471     144.092      76.504
  O      -85.741     142.216      74.977
  O      -87.318     141.671      76.979
  H      -85.729     142.698      74.132
  H      -85.653     145.936      76.212
  H      -86.592     145.314      74.876
  H      -85.005     144.662      75.208

 6  7  8  9  10  11  12  13  14  15  16  27  31  32  33  34  35 0
 6-311+G(2d,p)
 ****
 36  37 0
 6-311+G(2d,p)
 ****
 1  2  3  4  5  17  18  19  20  21  22  23  24  25 0
 3-21G
 ****
 26  28  29  30  38  39  40  41  42  43  44  45 0
 3-21G
 ****


