%nproc=1
%NoSave
%Mem=1900MB
#P OB98/GEN NMR

erre ene a

0 1
  C       50.732      74.201     -86.587
  O       50.308      75.182     -85.662
  H       50.837      74.638     -87.584
  H       51.702      73.812     -86.266
  H       50.013      73.377     -86.615
  P       48.946      75.953     -86.016
  C       50.499      77.864     -86.825
  O       49.333      77.095     -87.077
  C       50.199      79.347     -87.002
  O       49.887      79.633     -88.380
  C       49.003      79.855     -86.205
  O       49.328      80.077     -84.840
  C       48.715      81.160     -86.933
  O       49.620      82.181     -86.473
  C       49.027      80.801     -88.394
  N       44.879      82.757     -90.706
  C       45.869      83.336     -89.988
  N       46.931      82.755     -89.395
  C       46.931      81.429     -89.611
  C       45.993      80.700     -90.322
  C       44.922      81.417     -90.881
  N       43.910      80.814     -91.597
  N       46.329      79.363     -90.344
  C       47.451      79.284     -89.659
  N       47.852      80.507     -89.189
  O       48.628      76.783     -84.682
  O       47.800      75.080     -86.403
  H       49.477      82.959     -87.044
  H       47.662      76.812     -84.551
  H       45.798      84.415     -89.877
  H       48.006      78.370     -89.483
  H       49.584      81.601     -88.893
  H       47.699      81.527     -86.772
  H       48.142      79.184     -86.310
  H       51.106      79.908     -86.740
  H       51.287      77.571     -87.527
  H       43.288      81.394     -92.133
  H       43.956      79.809     -91.729
  H       50.841      77.663     -85.804
  P       48.162      79.857     -83.757
  C       47.924      82.286     -82.879
  O       47.373      81.251     -83.685
  O       48.962      79.815     -82.371
  O       47.333      78.636     -83.958
  H       48.451      79.308     -81.709
  H       47.294      83.150     -82.928
  H       48.900      82.536     -83.238
  H       47.992      81.951     -81.865

 6  7  8  9  10  11  12  13  14  15  25  28  32  33  34  35 0
 6-311+G(2d,p)
 ****
 36  39  40 0
 6-311+G(2d,p)
 ****
 1  2  3  4  5  16  17  18  19  20  21  22  23  24 0
 3-21G
 ****
 26  27  29  30  31  37  38  41  42  43  44  45  46  47  48 0
 3-21G
 ****


