%nproc=1
%NoSave
%Mem=1900MB
#P OB98/GEN NMR

erre ene a

0 1
  C     1700.407    -887.140     426.029
  O     1700.355    -888.310     426.847
  H     1700.949    -886.350     426.574
  H     1699.373    -886.770     425.858
  H     1700.886    -887.330     425.081
  P     1700.024    -889.700     426.154
  C     1701.510    -890.840     427.927
  O     1700.245    -890.870     427.237
  C     1701.456    -891.710     429.193
  O     1700.813    -892.980     428.885
  C     1702.868    -892.050     429.739
  O     1703.413    -891.060     430.606
  C     1702.595    -893.380     430.456
  O     1702.198    -893.140     431.832
  C     1701.464    -894.000     429.657
  N     1702.425    -898.980     429.037
  C     1702.137    -898.300     430.231
  N     1702.166    -899.030     431.351
  N     1701.885    -897.000     430.232
  C     1702.015    -896.420     429.049
  C     1702.301    -896.990     427.841
  C     1702.519    -898.390     427.756
  O     1702.755    -899.100     426.775
  N     1702.389    -896.050     426.814
  C     1702.229    -894.910     427.433
  N     1701.922    -895.080     428.787
  O     1701.246    -889.930     425.144
  O     1698.705    -889.760     425.426
  H     1702.981    -892.840     432.321
  H     1700.932    -890.420     424.372
  H     1702.582    -899.990     429.068
  H     1702.280    -893.920     426.986
  H     1700.703    -894.450     430.329
  H     1703.493    -893.980     430.488
  H     1702.431    -900.000     431.392
  H     1703.578    -892.250     428.893
  H     1702.148    -898.520     432.242
  H     1700.855    -891.230     429.961
  H     1701.696    -889.800     428.188
  H     1702.323    -891.190     427.276
  P     1704.961    -890.900     430.767
  C     1704.720    -888.450     431.695
  O     1705.247    -889.750     431.859
  O     1705.420    -890.180     429.394
  O     1705.738    -892.150     431.045
  H     1705.777    -890.850     428.780
  H     1705.020    -887.837     432.519
  H     1703.652    -888.500     431.658
  H     1705.089    -888.028     430.784

 6  7  8  9  10  11  12  13  14  15  26  29  33  34 0
 6-311+G(2d,p)
 ****
 36  38  39  40  41 0
 6-311+G(2d,p)
 ****
 1  2  3  4  5  16  17  18  19  20  21  22  23  24  25 0
 3-21G
 ****
 27  28  30  31  32  35  37  42  43  44  45  46  47 0
 3-21G
 ****
 48  49 0
 3-21G
 ****


