%nproc=1
%NoSave
%Mem=1900MB
#P OB98/GEN NMR

erre ene a

0 1
  C      533.608    -434.451    -271.272
  O      533.711    -433.146    -270.682
  P      533.182    -432.954    -269.182
  C      535.464    -431.807    -268.685
  O      534.060    -431.821    -268.468
  C      536.101    -430.577    -268.025
  O      535.383    -429.370    -268.350
  C      536.116    -430.640    -266.509
  O      537.205    -431.416    -266.022
  C      536.311    -429.173    -266.151
  O      537.705    -428.823    -266.291
  C      535.478    -428.464    -267.231
  N      532.729    -425.849    -263.788
  C      534.059    -426.010    -263.936
  N      534.710    -426.739    -264.866
  C      533.847    -427.318    -265.714
  C      532.466    -427.240    -265.692
  C      531.896    -426.458    -264.666
  N      530.540    -426.285    -264.520
  N      531.912    -427.977    -266.719
  C      532.948    -428.485    -267.355
  N      534.133    -428.126    -266.785
  O      533.664    -434.300    -268.454
  O      531.703    -432.781    -269.077
  H      538.207    -429.467    -265.753
  H      533.006    -434.565    -267.780
  H      534.685    -425.495    -263.216
  H      532.879    -429.110    -268.243
  H      535.953    -427.542    -267.578
  H      536.034    -428.948    -265.124
  H      535.149    -430.991    -266.118
  H      537.132    -430.486    -268.398
  H      535.682    -431.806    -269.758
  H      530.208    -425.689    -263.781
  H      529.923    -426.726    -265.191
  H      535.897    -432.735    -268.285
  P      536.901    -432.933    -265.606
  C      539.476    -433.279    -265.528
  O      538.223    -433.466    -264.887
  O      536.885    -433.693    -267.010
  O      535.625    -433.119    -264.862
  H      536.277    -434.458    -266.978
  H      540.275    -433.407    -264.794
  H      539.552    -432.280    -265.967
  H      539.587    -434.034    -266.317
  H      533.998    -434.424    -272.268
  H      532.581    -434.750    -271.299
  H      534.168    -435.152    -270.688

 3  4  5  6  7  8  9  10  11  12  22  25  29  30  31  32 0
 6-311+G(2d,p)
 ****
 33  36  37 0
 6-311+G(2d,p)
 ****
 1  2  13  14  15  16  17  18  19  20  21  23  24  26 0
 3-21G
 ****
 27  28  34  35  38  39  40  41  42  43  44  45  46  47  48 0
 3-21G
 ****


