%nproc=1
%NoSave
%Mem=1900MB
#P OB98/GEN NMR

erre ene a

0 1
  C     -676.993     -84.072    -260.008
  O     -677.297     -83.917    -261.377
  H     -677.911     -84.346    -259.475
  H     -676.627     -83.126    -259.601
  H     -676.253     -84.858    -259.850
  P     -676.090     -83.801    -262.427
  C     -676.893     -85.697    -263.979
  O     -675.896     -85.263    -263.062
  C     -677.505     -87.029    -263.527
  O     -678.157     -86.829    -262.242
  C     -678.559     -87.591    -264.498
  O     -678.507     -89.019    -264.400
  C     -679.844     -87.065    -263.892
  O     -680.970     -87.772    -264.371
  C     -679.541     -87.213    -262.400
  N     -680.434     -86.410    -261.562
  C     -681.576     -87.040    -261.094
  O     -681.874     -88.206    -261.383
  N     -682.410     -86.284    -260.316
  C     -682.242     -84.962    -260.027
  O     -683.038     -84.320    -259.353
  C     -681.032     -84.334    -260.587
  C     -680.196     -85.077    -261.309
  O     -674.838     -83.178    -261.909
  O     -676.708     -82.971    -263.651
  H     -681.145     -87.531    -265.303
  H     -676.009     -82.452    -264.088
  H     -683.242     -86.725    -259.964
  H     -680.870     -83.283    -260.377
  H     -679.296     -84.642    -261.734
  H     -679.634     -88.261    -262.082
  H     -679.987     -86.008    -264.146
  H     -678.407     -87.270    -265.528
  H     -676.696     -87.749    -263.364
  H     -676.415     -85.825    -264.956
  H     -677.672     -84.935    -264.060
  P     -677.545     -89.899    -265.327
  C     -676.014     -91.288    -263.788
  O     -676.142     -90.104    -264.575
  O     -677.413     -89.404    -266.732
  O     -678.191     -91.366    -265.307
  H     -677.968     -91.835    -266.135
  H     -675.043     -91.314    -263.339
  H     -676.141     -92.147    -264.413
  H     -676.761     -91.290    -263.022

 6  7  8  9  10  11  12  13  14  15  16  26  31  32  33  34  35 0
 6-311+G(2d,p)
 ****
 36  37 0
 6-311+G(2d,p)
 ****
 1  2  3  4  5  17  18  19  20  21  22  23  24  25 0
 3-21G
 ****
 27  28  29  30  38  39  40  41  42  43  44  45 0
 3-21G
 ****


