%nproc=1
%NoSave
%Mem=1900MB
#P OB98/GEN NMR

erre ene a

0 1
  C     -423.369     -63.745    -462.822
  O     -421.954     -63.809    -463.038
  P     -421.144     -65.191    -463.117
  C     -419.539     -65.382    -465.127
  O     -420.872     -65.556    -464.652
  C     -419.514     -64.657    -466.480
  O     -420.056     -63.331    -466.356
  C     -418.121     -64.472    -467.077
  O     -417.640     -65.683    -467.632
  C     -418.383     -63.365    -468.092
  O     -418.929     -63.894    -469.310
  C     -419.436     -62.502    -467.358
  N     -418.852     -61.301    -466.772
  C     -418.588     -60.246    -467.646
  O     -418.790     -60.371    -468.859
  N     -418.081     -59.073    -467.134
  C     -417.790     -59.000    -465.871
  N     -417.290     -57.815    -465.417
  C     -417.969     -60.119    -464.934
  C     -418.503     -61.230    -465.444
  O     -421.760     -66.299    -462.328
  O     -419.685     -64.848    -462.550
  H     -419.042     -63.139    -469.916
  H     -419.318     -65.647    -462.122
  H     -417.688     -60.025    -463.892
  H     -418.677     -62.097    -464.823
  H     -420.235     -62.203    -468.045
  H     -417.480     -62.814    -468.354
  H     -417.433     -64.106    -466.305
  H     -420.155     -65.220    -467.172
  H     -417.192     -57.062    -466.090
  H     -419.083     -66.373    -465.241
  H     -417.042     -57.648    -464.453
  H     -418.973     -64.813    -464.382
  P     -416.501     -66.508    -466.872
  C     -417.652     -68.692    -466.164
  O     -417.212     -67.407    -465.752
  O     -415.333     -65.709    -466.391
  O     -416.039     -67.600    -467.953
  H     -415.090     -67.798    -467.821
  H     -417.741     -69.331    -465.280
  H     -416.944     -69.145    -466.865
  H     -418.634     -68.603    -466.640
  H     -423.682     -62.722    -462.808
  H     -423.608     -64.204    -461.885
  H     -423.874     -64.261    -463.611

 3  4  5  6  7  8  9  10  11  12  13  23  27  28  29  30  32 0
 6-311+G(2d,p)
 ****
 34  35 0
 6-311+G(2d,p)
 ****
 1  2  14  15  16  17  18  19  20  21  22  24  25  26 0
 3-21G
 ****
 31  33  36  37  38  39  40  41  42  43  44  45  46 0
 3-21G
 ****


