%nproc=1
%NoSave
%Mem=1900MB
#P OB98/GEN NMR

erre ene a

0 1
  C      105.074     349.867     -85.148
  O      105.807     348.839     -85.782
  H      104.985     349.627     -84.085
  H      104.071     349.944     -85.578
  H      105.598     350.823     -85.255
  P      105.953     348.946     -87.381
  C      108.144     347.551     -87.637
  O      106.731     347.595     -87.777
  C      108.635     346.109     -87.730
  O      108.247     345.366     -86.549
  C      108.062     345.322     -88.906
  O      108.686     345.628     -90.141
  C      108.381     343.907     -88.451
  O      109.786     343.650     -88.619
  C      108.003     343.989     -86.957
  N      106.609     343.614     -86.699
  C      106.385     342.320     -86.212
  O      107.324     341.549     -86.022
  N      105.090     341.913     -85.988
  C      104.107     342.731     -86.201
  N      102.847     342.268     -85.963
  C      104.295     344.104     -86.699
  C      105.555     344.477     -86.922
  O      107.079     350.068     -87.574
  O      104.694     349.193     -88.140
  H      109.976     343.749     -89.571
  H      107.353     350.108     -88.522
  H      103.444     344.748     -86.876
  H      105.773     345.477     -87.287
  H      108.654     343.346     -86.348
  H      107.848     343.142     -89.015
  H      106.974     345.433     -88.978
  H      109.732     346.128     -87.757
  H      102.749     341.302     -85.677
  H      108.408     347.978     -86.661
  H      102.014     342.775     -86.240
  H      108.620     348.146     -88.425
  P      107.743     345.735     -91.438
  C      109.517     346.687     -93.088
  O      108.689     345.586     -92.721
  O      107.324     347.277     -91.459
  O      106.549     344.830     -91.418
  H      106.414     347.387     -91.800
  H      110.084     346.432     -93.959
  H      110.183     346.916     -92.283
  H      108.905     347.539     -93.298

 6  7  8  9  10  11  12  13  14  15  16  26  30  31  32  33  35 0
 6-311+G(2d,p)
 ****
 37  38 0
 6-311+G(2d,p)
 ****
 1  2  3  4  5  17  18  19  20  21  22  23  24  25 0
 3-21G
 ****
 27  28  29  34  36  39  40  41  42  43  44  45  46 0
 3-21G
 ****


