%nproc=1
%NoSave
%Mem=1900MB
#P OB98/GEN NMR

erre ene a

0 1
  C     -176.618     116.568      27.015
  O     -175.911     117.491      26.215
  H     -177.017     115.782      26.371
  H     -177.450     117.071      27.514
  H     -175.964     116.109      27.761
  P     -174.957     118.559      26.929
  C     -172.574     118.555      27.920
  O     -173.644     117.774      27.409
  C     -171.227     117.872      27.653
  O     -171.237     116.558      28.267
  C     -170.991     117.661      26.154
  O     -169.605     117.643      25.826
  C     -171.573     116.278      25.914
  O     -171.041     115.639      24.754
  C     -171.225     115.570      27.222
  N     -173.367     111.194      25.726
  C     -172.622     112.096      24.993
  N     -172.419     111.789      23.689
  N     -172.139     113.207      25.485
  C     -172.482     113.419      26.779
  C     -173.233     112.611      27.602
  C     -173.731     111.367      27.055
  O     -174.416     110.543      27.654
  N     -173.376     113.163      28.851
  C     -172.717     114.302      28.782
  N     -172.136     114.493      27.552
  O     -175.702     118.866      28.314
  O     -174.701     119.817      26.154
  H     -171.156     116.250      24.004
  H     -175.420     119.728      28.668
  H     -173.689     110.340      25.307
  H     -172.618     115.015      29.593
  H     -170.215     115.144      27.174
  H     -172.650     116.382      25.759
  H     -172.934     111.052      23.232
  H     -171.490     118.408      25.541
  H     -172.157     112.566      23.078
  H     -170.418     118.438      28.128
  H     -172.744     118.665      28.993
  H     -172.592     119.555      27.484
  P     -168.838     119.040      25.656
  C     -167.745     120.734      27.371
  O     -168.084     119.412      27.013
  O     -170.019     120.112      25.569
  O     -167.931     119.107      24.467
  H     -170.027     120.539      24.692
  H     -167.248     120.731      28.319
  H     -168.635     121.325      27.436
  H     -167.095     121.149      26.629

 6  7  8  9  10  11  12  13  14  15  26  29  33  34 0
 6-311+G(2d,p)
 ****
 36  38  39  40  41 0
 6-311+G(2d,p)
 ****
 1  2  3  4  5  16  17  18  19  20  21  22  23  24  25 0
 3-21G
 ****
 27  28  30  31  32  35  37  42  43  44  45  46  47 0
 3-21G
 ****
 48  49 0
 3-21G
 ****


