%nproc=1
%NoSave
%Mem=1900MB
#P OB98/GEN NMR

erre ene a

0 1
  C      543.786     323.256    -894.170
  O      543.380     321.935    -894.510
  P      542.578     321.091    -893.410
  C      540.438     319.612    -893.450
  O      541.240     320.584    -894.120
  C      538.962     319.799    -893.790
  O      538.443     320.996    -893.160
  C      538.681     319.988    -895.280
  O      538.625     318.740    -895.980
  C      537.299     320.616    -895.240
  O      536.296     319.617    -895.010
  C      537.422     321.541    -894.000
  N      536.302     326.473    -893.170
  C      535.735     325.331    -892.710
  N      536.060     324.058    -893.010
  C      537.105     324.010    -893.870
  C      537.764     325.106    -894.430
  C      537.328     326.385    -894.040
  N      537.943     327.537    -894.480
  N      538.781     324.679    -895.270
  C      538.737     323.350    -895.210
  N      537.751     322.906    -894.350
  O      542.058     322.222    -892.390
  O      543.388     320.040    -892.710
  H      536.251     319.058    -895.820
  H      541.881     321.831    -891.520
  H      534.882     325.468    -892.060
  H      539.391     322.674    -895.740
  H      536.479     321.571    -893.420
  H      537.033     321.125    -896.170
  H      539.392     320.686    -895.740
  H      538.415     318.931    -893.400
  H      540.570     319.718    -892.370
  H      537.693     328.402    -894.020
  H      538.822     327.474    -894.960
  H      540.784     318.614    -893.750
  P      538.710     318.795    -897.570
  C      539.832     317.278    -899.360
  O      539.718     317.634    -898.000
  O      539.528     320.142    -897.860
  O      537.351     318.796    -898.260
  H      539.304     320.506    -898.750
  H      540.757     316.720    -899.510
  H      539.879     318.185    -900.000
  H      538.980     316.658    -899.670
  H      544.307     323.693    -894.996
  H      544.433     323.222    -893.318
  H      542.924     323.846    -893.940

 3  4  5  6  7  8  9  10  11  12  22  25  29  30  31  32 0
 6-311+G(2d,p)
 ****
 33  36  37 0
 6-311+G(2d,p)
 ****
 1  2  13  14  15  16  17  18  19  20  21  23  24  26 0
 3-21G
 ****
 27  28  34  35  38  39  40  41  42  43  44  45  46  47  48 0
 3-21G
 ****


