%nproc=1
%NoSave
%Mem=1900MB
#P OB98/GEN NMR

erre ene a

0 1
  C     -448.961     452.076     -57.443
  O     -448.036     452.763     -56.609
  P     -448.636     453.677     -55.428
  C     -446.957     453.451     -53.413
  O     -448.138     452.999     -54.061
  C     -446.641     452.552     -52.208
  O     -446.421     451.197     -52.653
  C     -445.387     452.939     -51.440
  O     -445.603     454.066     -50.606
  C     -445.082     451.645     -50.701
  O     -445.911     451.531     -49.531
  C     -445.482     450.583     -51.747
  N     -444.339     450.016     -52.463
  C     -443.676     448.960     -51.836
  O     -444.008     448.518     -50.741
  N     -442.593     448.457     -52.512
  C     -442.092     448.930     -53.687
  O     -441.086     448.465     -54.228
  C     -442.814     450.060     -54.291
  C     -443.890     450.542     -53.660
  O     -450.188     453.298     -55.527
  O     -448.320     455.125     -55.591
  H     -450.323     452.404     -55.888
  H     -445.602     452.219     -48.905
  H     -442.110     447.679     -52.087
  H     -442.440     450.468     -55.214
  H     -444.427     451.382     -54.074
  H     -446.025     449.758     -51.261
  H     -444.038     451.580     -50.369
  H     -444.573     453.161     -52.149
  H     -447.518     452.553     -51.544
  H     -447.112     454.478     -53.074
  H     -446.129     453.436     -54.128
  P     -444.320     454.985     -50.282
  C     -445.092     457.282     -51.267
  O     -444.299     456.125     -51.415
  O     -443.123     454.004     -50.696
  O     -444.265     455.463     -48.876
  H     -443.301     453.514     -51.522
  H     -444.687     458.070     -51.911
  H     -445.102     457.645     -50.236
  H     -446.121     457.062     -51.583
  H     -448.427     451.512     -58.179
  H     -449.597     452.785     -57.930
  H     -449.555     451.414     -56.848

 3  4  5  6  7  8  9  10  11  12  13  24  28  29  30  31  32 0
 6-311+G(2d,p)
 ****
 33  34 0
 6-311+G(2d,p)
 ****
 1  2  14  15  16  17  18  19  20  21  22  23  25  26  27 0
 3-21G
 ****
 35  36  37  38  39  40  41  42  43  44  45 0
 3-21G
 ****


