%nproc=1
%NoSave
%Mem=1900MB
#P OB98/GEN NMR

erre ene a

0 1
  C      -69.398     -60.189     -34.188
  O      -69.723     -59.158     -35.095
  H      -68.311     -60.229     -34.081
  H      -69.749     -61.148     -34.581
  H      -69.841     -60.011     -33.204
  P      -71.216     -58.585     -35.107
  C      -71.898     -59.874     -37.238
  O      -72.148     -59.661     -35.854
  C      -73.184     -60.167     -38.013
  O      -73.876     -61.293     -37.425
  C      -74.167     -58.997     -37.968
  O      -73.946     -57.982     -38.931
  C      -75.500     -59.702     -38.211
  O      -75.746     -59.861     -39.618
  C      -75.290     -61.063     -37.543
  N      -79.607     -60.784     -34.824
  C      -79.409     -60.531     -36.168
  N      -80.484     -60.093     -36.859
  N      -78.255     -60.678     -36.766
  C      -77.250     -61.029     -35.928
  C      -77.322     -61.291     -34.578
  C      -78.618     -61.179     -33.936
  O      -78.846     -61.384     -32.747
  N      -76.093     -61.624     -34.061
  C      -75.267     -61.488     -35.081
  N      -75.927     -61.153     -36.242
  O      -71.153     -57.386     -36.172
  O      -71.728     -58.102     -33.784
  H      -76.528     -60.431     -39.731
  H      -71.839     -56.726     -35.971
  H      -80.524     -60.679     -34.423
  H      -74.196     -61.643     -35.040
  H      -75.696     -61.877     -38.159
  H      -76.341     -59.127     -37.806
  H      -81.360     -59.854     -36.420
  H      -74.191     -58.554     -36.966
  H      -80.321     -59.650     -37.766
  H      -72.929     -60.444     -39.043
  H      -71.218     -60.726     -37.307
  H      -71.381     -59.011     -37.666
  P      -74.335     -56.463     -38.600
  C      -75.967     -56.326     -40.622
  O      -75.786     -56.204     -39.229
  O      -73.352     -55.631     -39.551
  O      -74.185     -56.075     -37.169
  H      -72.562     -55.350     -39.053
  H      -76.988     -56.121     -40.868
  H      -75.719     -57.321     -40.928
  H      -75.331     -55.629     -41.127

 6  7  8  9  10  11  12  13  14  15  26  29  33  34 0
 6-311+G(2d,p)
 ****
 36  38  39  40  41 0
 6-311+G(2d,p)
 ****
 1  2  3  4  5  16  17  18  19  20  21  22  23  24  25 0
 3-21G
 ****
 27  28  30  31  32  35  37  42  43  44  45  46  47 0
 3-21G
 ****
 48  49 0
 3-21G
 ****


