%nproc=1
%NoSave
%Mem=1900MB
#P OB98/GEN NMR

erre ene a

0 1
  C        3.940      62.197    -297.869
  O        4.406      60.972    -298.420
  P        3.902      59.608    -297.735
  C        6.219      58.436    -297.750
  O        5.179      59.013    -296.969
  C        7.570      59.041    -297.377
  O        7.402      60.407    -296.949
  C        8.284      58.337    -296.233
  O        8.980      57.181    -296.665
  C        9.262      59.414    -295.797
  O       10.389      59.440    -296.693
  C        8.428      60.691    -295.961
  N        8.986      63.617    -291.804
  C        9.824      63.333    -292.824
  N        9.606      62.534    -293.891
  C        8.388      61.969    -293.819
  C        7.442      62.135    -292.821
  C        7.772      63.013    -291.778
  N        6.906      63.324    -290.752
  N        6.315      61.390    -293.095
  C        6.569      60.796    -294.241
  N        7.807      61.121    -294.725
  O        3.726      58.621    -298.984
  O        2.651      59.730    -296.935
  H       10.692      58.518    -296.798
  H        3.097      57.909    -298.761
  H       10.795      63.819    -292.785
  H        5.888      60.131    -294.756
  H        9.019      61.529    -296.344
  H        9.657      59.250    -294.790
  H        7.591      58.116    -295.408
  H        8.198      59.045    -298.278
  H        6.021      58.629    -298.808
  H        7.144      64.093    -290.151
  H        5.940      63.031    -290.843
  H        6.228      57.353    -297.587
  P        8.403      55.763    -296.176
  C       10.501      55.567    -294.653
  O        9.091      55.494    -294.754
  O        9.122      54.723    -297.157
  O        6.917      55.660    -296.224
  H        8.586      53.912    -297.245
  H       10.772      55.671    -293.599
  H       10.893      56.428    -295.201
  H       10.948      54.649    -295.044
  H        4.353      63.016    -298.420
  H        4.244      62.266    -296.846
  H        2.872      62.231    -297.927

 3  4  5  6  7  8  9  10  11  12  22  25  29  30  31  32 0
 6-311+G(2d,p)
 ****
 33  36  37 0
 6-311+G(2d,p)
 ****
 1  2  13  14  15  16  17  18  19  20  21  23  24  26 0
 3-21G
 ****
 27  28  34  35  38  39  40  41  42  43  44  45  46  47  48 0
 3-21G
 ****


