%nproc=1
%NoSave
%Mem=1900MB
#P OB98/GEN NMR

erre ene a

0 1
  C      423.416    -189.260    -134.539
  O      422.370    -188.712    -133.746
  P      421.726    -187.266    -134.050
  C      419.319    -188.011    -134.585
  O      420.163    -187.300    -133.685
  C      418.103    -188.616    -133.871
  O      418.432    -189.907    -133.311
  C      417.569    -187.780    -132.712
  O      416.797    -186.698    -133.187
  C      416.803    -188.828    -131.915
  O      415.503    -189.051    -132.500
  C      417.687    -190.068    -132.096
  N      418.847    -193.227    -128.235
  C      417.915    -193.289    -129.207
  N      417.665    -192.419    -130.201
  C      418.519    -191.373    -130.136
  C      419.520    -191.169    -129.202
  C      419.670    -192.145    -128.215
  N      420.609    -192.075    -127.206
  N      420.174    -189.977    -129.444
  C      419.588    -189.482    -130.521
  N      418.589    -190.302    -130.981
  O      422.021    -186.746    -135.427
  O      422.348    -186.297    -132.934
  H      415.005    -189.620    -131.889
  H      422.390    -185.383    -133.283
  H      417.277    -194.179    -129.196
  H      419.863    -188.559    -131.001
  H      417.084    -190.990    -132.214
  H      416.645    -188.542    -130.872
  H      418.407    -187.399    -132.101
  H      417.315    -188.778    -134.624
  H      419.902    -188.807    -135.053
  H      420.633    -192.798    -126.513
  H      421.200    -191.248    -127.150
  H      418.981    -187.317    -135.365
  P      416.500    -185.440    -132.240
  C      418.191    -183.868    -133.373
  O      416.822    -184.124    -133.103
  O      417.127    -185.489    -130.886
  O      414.898    -185.406    -132.139
  H      414.643    -185.028    -131.277
  H      418.653    -183.416    -132.492
  H      418.254    -183.174    -134.211
  H      418.708    -184.794    -133.631
  H      423.686    -190.222    -134.157
  H      424.266    -188.611    -134.505
  H      423.082    -189.358    -135.551

 3  4  5  6  7  8  9  10  11  12  22  25  29  30  31  32 0
 6-311+G(2d,p)
 ****
 33  36  37 0
 6-311+G(2d,p)
 ****
 1  2  13  14  15  16  17  18  19  20  21  23  24  26 0
 3-21G
 ****
 27  28  34  35  38  39  40  41  42  43  44  45  46  47  48 0
 3-21G
 ****


