%nproc=1
%NoSave
%Mem=1900MB
#P OB98/GEN NMR

erre ene a

0 1
  C     -261.816    -153.232    -231.765
  O     -260.793    -153.535    -232.692
  P     -260.966    -153.377    -234.273
  C     -259.417    -153.628    -236.351
  O     -259.501    -153.408    -234.947
  C     -258.000    -153.992    -236.815
  O     -257.072    -152.984    -236.364
  C     -257.551    -155.310    -236.171
  O     -257.932    -156.549    -236.742
  C     -256.058    -155.150    -235.934
  O     -255.267    -155.765    -236.954
  C     -255.857    -153.630    -235.948
  N     -252.279    -153.490    -232.346
  C     -252.186    -153.947    -233.646
  N     -251.057    -154.618    -233.961
  N     -253.126    -153.777    -234.545
  C     -254.239    -153.171    -234.054
  C     -254.440    -152.661    -232.792
  C     -253.376    -152.817    -231.824
  O     -253.455    -152.501    -230.636
  N     -255.715    -152.178    -232.637
  C     -256.299    -152.435    -233.787
  N     -255.453    -153.067    -234.669
  O     -261.942    -152.345    -234.743
  O     -261.556    -154.825    -234.678
  H     -254.326    -155.630    -236.730
  H     -262.174    -154.689    -235.418
  H     -251.556    -153.718    -231.676
  H     -257.332    -152.207    -234.028
  H     -255.084    -153.349    -236.676
  H     -255.762    -155.622    -234.991
  H     -250.382    -154.895    -233.260
  H     -257.995    -155.332    -235.167
  H     -251.026    -155.115    -234.847
  H     -257.932    -153.990    -237.909
  H     -259.765    -152.715    -236.847
  H     -260.108    -154.431    -236.636
  P     -258.410    -157.852    -235.947
  C     -259.512    -160.110    -236.466
  O     -259.099    -158.857    -236.990
  O     -259.653    -157.356    -235.067
  O     -257.367    -158.474    -235.071
  H     -259.788    -157.955    -234.309
  H     -259.674    -160.812    -237.285
  H     -260.451    -159.980    -235.916
  H     -258.754    -160.520    -235.793
  H     -261.464    -153.417    -230.772
  H     -262.669    -153.848    -231.961
  H     -262.090    -152.202    -231.860

 3  4  5  6  7  8  9  10  11  12  23  26  30  31 0
 6-311+G(2d,p)
 ****
 33  35  36  37  38 0
 6-311+G(2d,p)
 ****
 1  2  13  14  15  16  17  18  19  20  21  22  24  25 0
 3-21G
 ****
 27  28  29  32  34  39  40  41  42  43  44  45  46  47  48  49 0
 3-21G
 ****


