%nproc=1
%NoSave
%Mem=1900MB
#P OB98/GEN NMR

erre ene a

0 1
  C      123.934     295.926     403.240
  O      122.662     296.542     403.055
  P      121.491     295.772     402.289
  C      121.429     294.452     400.021
  O      121.951     295.517     400.787
  C      122.427     294.095     398.909
  O      123.697     293.704     399.485
  C      121.928     292.946     398.049
  O      121.253     293.432     396.892
  C      123.202     292.183     397.729
  O      123.902     292.811     396.639
  C      123.993     292.352     399.039
  N      123.704     291.435     400.159
  C      123.963     290.067     400.027
  O      124.470     289.575     399.025
  N      123.606     289.289     401.098
  C      123.057     289.728     402.264
  O      122.517     289.018     403.107
  C      123.056     291.190     402.455
  C      123.351     291.964     401.404
  O      120.355     296.905     402.141
  O      120.973     294.547     402.970
  H      124.041     293.743     396.893
  H      119.681     296.796     402.839
  H      123.662     288.280     400.948
  H      122.764     291.588     403.413
  H      123.316     293.038     401.501
  H      125.075     292.304     398.858
  H      122.982     291.167     397.409
  H      121.258     292.289     398.633
  H      122.596     294.986     398.287
  H      120.460     294.734     399.596
  H      121.255     293.573     400.668
  P      120.167     292.524     396.162
  C      120.367     290.018     395.618
  O      120.999     291.274     395.562
  O      119.284     293.222     395.183
  O      119.335     291.883     397.372
  H      118.509     292.396     397.513
  H      120.945     289.305     395.027
  H      119.348     290.079     395.204
  H      120.319     289.669     396.651
  H      124.580     296.594     403.771
  H      124.362     295.699     402.286
  H      123.815     295.023     403.802

 3  4  5  6  7  8  9  10  11  12  13  23  28  29  30  31  32 0
 6-311+G(2d,p)
 ****
 33  34 0
 6-311+G(2d,p)
 ****
 1  2  14  15  16  17  18  19  20  21  22  24  25  26  27 0
 3-21G
 ****
 35  36  37  38  39  40  41  42  43  44  45 0
 3-21G
 ****


