%nproc=1
%NoSave
%Mem=1900MB
#P OB98/GEN NMR

erre ene a

0 1
  C        9.611     -45.920      15.986
  O        9.135     -44.699      16.556
  P        7.791     -44.720      17.428
  C        8.643     -45.221      19.807
  O        8.136     -44.234      18.920
  C        9.640     -44.602      20.796
  O       10.756     -43.991      20.086
  C        9.005     -43.507      21.663
  O        9.601     -43.490      22.971
  C        9.415     -42.233      20.951
  O        9.347     -41.100      21.815
  C       10.821     -42.607      20.487
  N       12.337     -37.918      19.097
  C       12.004     -38.434      20.301
  N       11.633     -39.697      20.598
  C       11.636     -40.465      19.496
  C       11.962     -40.080      18.205
  C       12.319     -38.734      18.019
  N       12.629     -38.201      16.788
  N       11.845     -41.143      17.331
  C       11.410     -42.138      18.076
  N       11.301     -41.788      19.394
  O        6.984     -45.972      17.345
  O        6.971     -43.471      16.843
  H        9.851     -40.380      21.393
  H        6.030     -43.719      16.756
  H       12.036     -37.739      21.135
  H       11.148     -43.121      17.711
  H       11.551     -42.534      21.302
  H        8.750     -42.054      20.098
  H        7.919     -43.587      21.774
  H       10.059     -45.396      21.425
  H        9.130     -46.014      19.236
  H       12.759     -37.202      16.734
  H       12.476     -38.760      15.961
  H        7.806     -45.697      20.330
  P        8.923     -44.454      24.068
  C        9.039     -46.914      23.190
  O        9.653     -45.870      23.913
  O        7.432     -44.469      24.007
  O        9.504     -43.857      25.434
  H       10.468     -43.734      25.449
  H        9.747     -47.740      23.094
  H        8.756     -46.580      22.188
  H        8.155     -47.271      23.725
  H       10.511     -45.731      15.439
  H        8.869     -46.318      15.326
  H        9.809     -46.625      16.767

 3  4  5  6  7  8  9  10  11  12  22  25  29  30  31  32 0
 6-311+G(2d,p)
 ****
 33  36  37 0
 6-311+G(2d,p)
 ****
 1  2  13  14  15  16  17  18  19  20  21  23  24  26 0
 3-21G
 ****
 27  28  34  35  38  39  40  41  42  43  44  45  46  47  48 0
 3-21G
 ****


