%nproc=1
%NoSave
%Mem=1900MB
#P OB98/GEN NMR

erre ene a

0 1
  C       50.419     294.400     354.370
  O       49.488     294.367     353.301
  H       50.463     295.418     354.762
  H       51.418     294.115     354.024
  H       50.094     293.731     355.166
  P       49.446     293.057     352.376
  C       51.869     293.139     351.489
  O       50.491     293.343     351.186
  C       52.770     293.661     350.370
  O       54.150     293.673     350.791
  C       52.749     292.810     349.108
  O       51.525     292.803     348.415
  C       54.005     293.275     348.394
  O       53.799     294.478     347.659
  C       54.959     293.549     349.592
  N       55.978     292.520     349.732
  C       57.134     292.701     348.988
  O       57.305     293.650     348.217
  N       58.088     291.727     349.112
  C       57.981     290.594     349.867
  O       58.868     289.749     349.926
  C       56.722     290.433     350.609
  C       55.791     291.394     350.514
  O       48.084     292.643     351.900
  O       50.189     291.943     353.251
  H       52.988     294.357     347.130
  H       50.016     291.035     352.900
  H       58.943     291.849     348.584
  H       56.597     289.544     351.208
  H       54.851     291.303     351.054
  H       55.461     294.518     349.465
  H       54.388     292.530     347.697
  H       52.928     291.760     349.400
  H       52.477     294.698     350.153
  H       52.029     292.058     351.609
  H       52.108     293.635     352.436
  P       50.704     291.479     348.063
  C       50.833     292.070     345.519
  O       50.029     291.671     346.615
  O       49.876     290.891     349.154
  O       51.899     290.436     347.739
  H       51.598     289.554     348.039
  H       50.226     292.148     344.641
  H       51.602     291.344     345.357
  H       51.278     293.020     345.730

 6  7  8  9  10  11  12  13  14  15  16  26  31  32  33  34  35 0
 6-311+G(2d,p)
 ****
 36  37 0
 6-311+G(2d,p)
 ****
 1  2  3  4  5  17  18  19  20  21  22  23  24  25 0
 3-21G
 ****
 27  28  29  30  38  39  40  41  42  43  44  45 0
 3-21G
 ****


