%nproc=1
%NoSave
%Mem=1900MB
#P OB98/GEN NMR

erre ene a

0 1
  C     -957.012     926.607     276.371
  O     -957.678     925.580     275.661
  H     -957.591     927.525     276.279
  H     -956.016     926.763     275.950
  H     -956.934     926.339     277.431
  P     -956.987     924.128     275.690
  C     -959.064     922.772     276.517
  O     -958.174     923.072     275.455
  C     -960.426     922.316     275.974
  O     -961.089     923.458     275.372
  C     -960.331     921.232     274.882
  O     -961.521     920.434     274.947
  C     -960.333     922.069     273.630
  O     -960.577     921.260     272.490
  C     -961.389     923.099     273.997
  N     -962.257     924.881     269.294
  C     -962.422     923.660     269.828
  N     -962.190     923.262     271.094
  C     -961.739     924.289     271.843
  C     -961.521     925.590     271.435
  C     -961.800     925.888     270.089
  N     -961.614     927.127     269.518
  N     -961.042     926.365     272.482
  C     -960.986     925.531     273.509
  N     -961.387     924.279     273.167
  O     -956.609     923.927     277.231
  O     -955.807     923.962     274.793
  H     -959.851     920.629     272.335
  H     -955.685     924.191     277.383
  H     -962.812     922.900     269.154
  H     -960.660     925.795     274.509
  H     -962.398     922.666     273.982
  H     -959.355     922.544     273.465
  H     -959.438     920.581     275.001
  H     -961.043     921.986     276.822
  H     -959.188     923.679     277.131
  H     -958.632     921.984     277.144
  H     -961.821     927.260     268.545
  H     -961.259     927.882     270.103
  P     -961.431     918.850     274.624
  C     -963.450     918.200     276.171
  O     -962.876     918.208     274.862
  O     -960.618     918.302     275.887
  O     -960.759     918.494     273.347
  H     -960.123     917.501     275.634
  H     -964.412     917.733     276.136
  H     -963.554     919.206     276.521
  H     -962.813     917.655     276.836

 6  7  8  9  10  11  12  13  14  15  25  28  32  33  34  35 0
 6-311+G(2d,p)
 ****
 36  37  40 0
 6-311+G(2d,p)
 ****
 1  2  3  4  5  16  17  18  19  20  21  22  23  24 0
 3-21G
 ****
 26  27  29  30  31  38  39 41  42  43  44  45  46  47  48 0
 3-21G
 ****


