%nproc=1
%NoSave
%Mem=1900MB
#P OB98/GEN NMR

erre ene a

0 1
  C     -371.032     496.996     -57.427
  O     -370.781     497.694     -56.212
  P     -370.137     499.176     -56.323
  C     -367.824     500.119     -57.001
  O     -368.615     498.970     -56.722
  C     -366.356     499.835     -56.706
  O     -365.892     498.662     -57.399
  C     -365.397     500.950     -57.143
  O     -365.354     502.019     -56.194
  C     -364.063     500.202     -57.165
  O     -363.541     500.095     -55.827
  C     -364.495     498.832     -57.711
  N     -361.798     496.409     -61.262
  C     -361.905     496.160     -59.888
  N     -361.140     495.156     -59.412
  N     -362.691     496.818     -59.078
  C     -363.386     497.807     -59.717
  C     -363.392     498.134     -61.058
  C     -362.493     497.395     -61.933
  O     -362.329     497.613     -63.122
  N     -364.240     499.190     -61.316
  C     -364.781     499.477     -60.136
  N     -364.270     498.685     -59.130
  O     -370.062     499.654     -54.792
  O     -370.919     500.127     -57.175
  H     -364.136     499.487     -55.345
  H     -369.947     500.622     -54.761
  H     -361.181     495.875     -61.827
  H     -365.517     500.235     -59.971
  H     -363.962     498.008     -57.197
  H     -363.314     500.708     -57.774
  H     -360.462     494.648     -59.960
  H     -365.645     501.302     -58.139
  H     -361.137     494.981     -58.401
  H     -366.249     499.657     -55.624
  H     -368.163     500.943     -56.383
  H     -367.946     500.404     -58.058
  P     -364.498     503.309     -56.631
  C     -362.137     503.582     -57.671
  O     -363.021     502.772     -56.927
  O     -364.361     504.122     -55.249
  O     -365.140     504.145     -57.702
  H     -364.243     505.057     -55.408
  H     -361.115     503.201     -57.554
  H     -362.160     504.608     -57.306
  H     -362.397     503.571     -58.727
  H     -371.454     496.038     -57.207
  H     -370.113     496.867     -57.960
  H     -371.717     497.559     -58.027

 3  4  5  6  7  8  9  10  11  12  23  26  30  31 0
 6-311+G(2d,p)
 ****
 33  35  36  37  38 0
 6-311+G(2d,p)
 ****
 1  2  13  14  15  16  17  18  19  20  21  22  24  25 0
 3-21G
 ****
 27  28  29  32  34  39  40  41  42  43  44  45  46  47  48  49 0
 3-21G
 ****


