%nproc=1
%NoSave
%Mem=1900MB
#P OB98/GEN NMR

erre ene a

0 1
  C      587.894     566.531    -371.248
  O      588.960     565.907    -370.539
  P      589.279     564.370    -370.876
  C      591.887     564.697    -370.808
  O      590.737     564.308    -371.538
  C      593.162     564.083    -371.414
  O      593.036     562.639    -371.358
  C      593.423     564.408    -372.872
  O      594.795     564.145    -373.173
  C      592.554     563.393    -373.584
  O      592.930     563.226    -374.960
  C      592.706     562.143    -372.685
  N      591.501     561.294    -372.636
  C      591.401     560.212    -373.501
  O      592.266     559.900    -374.317
  N      590.250     559.485    -373.435
  C      589.208     559.701    -372.575
  O      588.155     559.079    -372.624
  C      589.420     560.772    -371.589
  C      590.529     561.514    -371.654
  O      588.277     564.035    -372.094
  O      589.088     563.450    -369.721
  H      592.658     562.313    -375.204
  H      587.541     563.480    -371.765
  H      590.131     558.738    -374.103
  H      588.647     560.932    -370.838
  H      590.686     562.318    -370.940
  H      593.536     561.501    -373.042
  H      591.512     563.727    -373.582
  H      593.166     565.431    -373.159
  H      594.016     564.350    -370.788
  H      591.769     564.400    -369.766
  H      591.975     565.790    -370.821
  P      595.898     565.151    -372.573
  C      597.749     563.688    -371.536
  O      596.554     564.415    -371.318
  O      595.449     566.554    -372.370
  O      597.074     565.065    -373.671
  H      597.648     565.843    -373.582
  H      598.342     563.694    -370.620
  H      598.330     564.139    -372.348
  H      597.502     562.656    -371.800
  H      587.796     567.546    -370.924
  H      586.982     566.005    -371.056
  H      588.103     566.510    -372.297

 3  4  5  6  7  8  9  10  11  12  13  23  28  29  30  31  32 0
 6-311+G(2d,p)
 ****
 33  34 0
 6-311+G(2d,p)
 ****
 1  2  14  15  16  17  18  19  20  21  22  24  25  26  27 0
 3-21G
 ****
 35  36  37  38  39  40  41  42  43  44  45 0
 3-21G
 ****


