%nproc=1
%NoSave
%Mem=1900MB
#P OB98/GEN NMR

erre ene a

0 1
  C       63.011      74.594       9.819
  O       63.919      74.296       8.783
  H       62.939      73.723      10.477
  H       62.018      74.804       9.415
  H       63.365      75.446      10.404
  P       64.074      75.329       7.561
  C       61.782      74.786       6.544
  O       62.566      75.774       7.203
  C       60.336      75.247       6.363
  O       59.703      75.387       7.662
  C       60.200      76.590       5.637
  O       59.189      76.486       4.630
  C       59.759      77.550       6.731
  O       59.063      78.678       6.210
  C       58.949      76.614       7.634
  N       58.742      77.152       8.974
  C       57.416      77.361       9.365
  O       56.494      77.127       8.580
  N       57.164      77.864      10.615
  C       58.152      78.183      11.391
  N       57.836      78.687      12.614
  C       59.568      78.024      11.002
  C       59.788      77.502       9.796
  O       64.867      74.816       6.407
  O       64.689      76.647       8.226
  H       58.741      79.220       6.965
  H       65.106      77.205       7.524
  H       60.357      78.315      11.680
  H       60.796      77.341       9.430
  H       57.966      76.400       7.192
  H       60.641      77.916       7.273
  H       61.122      76.920       5.165
  H       59.785      74.455       5.841
  H       56.854      78.778      12.843
  H       61.817      73.862       7.131
  H       58.521      78.975      13.297
  H       62.224      74.602       5.557
  P       59.708      76.240       3.131
  C       60.176      78.696       2.453
  O       60.728      77.425       2.761
  O       58.415      76.555       2.243
  O       60.222      74.859       2.893
  H       57.983      75.724       1.972
  H       60.965      79.383       2.228
  H       59.619      79.056       3.293
  H       59.528      78.608       1.606

 6  7  8  9  10  11  12  13  14  15  16  26  30  31  32  33  35 0
 6-311+G(2d,p)
 ****
 37  38 0
 6-311+G(2d,p)
 ****
 1  2  3  4  5  17  18  19  20  21  22  23  24  25 0
 3-21G
 ****
 27  28  29  34  36  39  40  41  42  43  44  45  46 0
 3-21G
 ****


