%nproc=1
%NoSave
%Mem=1900MB
#P OB98/GEN NMR

erre ene a

0 1
  C     -968.094    -134.273     360.398
  O     -967.985    -135.704     360.504
  P     -966.561    -136.433     360.689
  C     -967.242    -138.637     361.833
  O     -966.787    -138.024     360.641
  C     -967.867    -140.023     361.554
  O     -969.056    -139.899     360.764
  C     -966.946    -140.979     360.805
  O     -965.998    -141.546     361.690
  C     -967.981    -141.969     360.225
  O     -968.350    -142.935     361.227
  C     -969.157    -141.050     359.897
  N     -969.867    -142.636     355.092
  C     -969.927    -143.283     356.263
  N     -969.721    -142.806     357.511
  C     -969.441    -141.474     357.451
  C     -969.320    -140.669     356.319
  C     -969.551    -141.314     355.094
  N     -969.471    -140.656     353.880
  N     -968.991    -139.402     356.666
  C     -968.927    -139.401     357.982
  N     -969.199    -140.636     358.502
  O     -965.780    -135.962     361.883
  O     -965.759    -136.114     359.343
  H     -967.520    -143.301     361.593
  H     -964.799    -136.124     359.509
  H     -970.183    -144.340     356.207
  H     -968.697    -138.540     358.606
  H     -970.120    -141.537     360.120
  H     -967.583    -142.529     359.379
  H     -966.456    -140.449     359.978
  H     -968.170    -140.455     362.526
  H     -968.008    -137.994     362.288
  H     -969.609    -141.181     353.033
  H     -969.207    -139.683     353.861
  H     -966.414    -138.741     362.532
  P     -964.515    -141.888     361.142
  C     -963.313    -139.715     361.755
  O     -963.486    -141.079     362.070
  O     -964.310    -141.739     359.674
  O     -964.285    -143.410     361.601
  H     -963.685    -143.852     360.988
  H     -962.656    -139.600     360.889
  H     -962.880    -139.211     362.628
  H     -964.283    -139.247     361.539
  H     -969.122    -134.001     360.281
  H     -967.537    -133.935     359.549
  H     -967.703    -133.819     361.285

 3  4  5  6  7  8  9  10  11  12  22  25  29  30  31  32 0
 6-311+G(2d,p)
 ****
 33  36  37 0
 6-311+G(2d,p)
 ****
 1  2  13  14  15  16  17  18  19  20  21  23  24  26 0
 3-21G
 ****
 27  28  34  35  38  39  40  41  42  43  44  45  46  47  48 0
 3-21G
 ****


