%nproc=1
%NoSave
%Mem=1900MB
#P OB98/GEN NMR

erre ene a

0 1
  C      240.385     849.464     -13.211
  O      240.501     848.069     -13.436
  P      239.651     847.341     -14.574
  C      238.984     845.376     -12.963
  O      239.519     845.798     -14.200
  C      238.913     843.845     -12.947
  O      237.970     843.378     -13.933
  C      240.273     843.222     -13.254
  O      240.971     842.920     -12.053
  C      239.892     841.995     -14.061
  O      239.501     840.917     -13.188
  C      238.671     842.508     -14.862
  N      238.925     843.277     -16.099
  C      239.450     842.625     -17.214
  O      239.689     841.421     -17.254
  N      239.709     843.426     -18.302
  C      239.455     844.767     -18.382
  O      239.910     845.504     -19.243
  C      238.663     845.327     -17.288
  C      238.456     844.576     -16.204
  O      240.646     847.338     -15.824
  O      238.345     847.985     -14.905
  H      240.279     840.670     -12.666
  H      240.441     848.067     -16.436
  H      240.217     842.986     -19.063
  H      238.320     846.349     -17.372
  H      237.905     844.986     -15.366
  H      237.998     841.687     -15.122
  H      240.743     841.627     -14.633
  H      240.858     843.892     -13.894
  H      238.561     843.518     -11.960
  H      237.978     845.809     -12.827
  H      239.603     845.743     -12.140
  P      242.430     843.523     -11.816
  C      243.748     841.359     -11.422
  O      243.152     842.498     -10.823
  O      242.469     844.964     -11.400
  O      243.159     843.295     -13.224
  H      243.127     844.119     -13.753
  H      244.352     840.838     -10.673
  H      244.389     841.661     -12.261
  H      242.972     840.680     -11.778
  H      241.034     849.751     -12.410
  H      239.374     849.701     -12.953
  H      240.659     849.993     -14.100

 3  4  5  6  7  8  9  10  11  12  13  23  28  29  30  31  32 0
 6-311+G(2d,p)
 ****
 33  34 0
 6-311+G(2d,p)
 ****
 1  2  14  15  16  17  18  19  20  21  22  24  25  26  27 0
 3-21G
 ****
 35  36  37  38  39  40  41  42  43  44  45 0
 3-21G
 ****


