%nproc=1
%NoSave
%Mem=1900MB
#P OB98/GEN NMR

erre ene a

0 1
  C     1301.339    -633.116    -578.395
  O     1300.522    -631.972    -578.421
  H     1301.746    -633.246    -577.380
  H     1302.179    -632.995    -579.087
  H     1300.771    -634.010    -578.656
  P     1299.660    -631.724    -579.752
  C     1301.530    -630.858    -581.338
  O     1300.394    -630.538    -580.550
  C     1301.779    -629.762    -582.369
  O     1300.760    -629.791    -583.397
  C     1301.772    -628.346    -581.805
  O     1303.025    -627.998    -581.230
  C     1301.514    -627.532    -583.062
  O     1302.718    -627.446    -583.842
  C     1300.481    -628.415    -583.796
  N     1296.520    -625.478    -584.984
  C     1297.795    -625.521    -585.518
  N     1298.042    -624.630    -586.508
  N     1298.736    -626.333    -585.125
  C     1298.328    -627.150    -584.128
  C     1297.106    -627.213    -583.504
  C     1296.074    -626.310    -583.956
  O     1294.929    -626.254    -583.539
  N     1297.068    -628.187    -582.530
  C     1298.289    -628.681    -582.546
  N     1299.105    -628.085    -583.481
  O     1298.316    -631.035    -579.217
  O     1299.362    -632.944    -580.554
  H     1303.390    -626.999    -583.285
  H     1297.568    -631.342    -579.752
  H     1295.838    -624.815    -585.315
  H     1298.638    -629.486    -581.898
  H     1300.593    -628.361    -584.884
  H     1301.183    -626.523    -582.850
  H     1297.393    -623.937    -586.828
  H     1300.946    -628.193    -581.096
  H     1298.963    -624.657    -586.945
  H     1302.744    -629.979    -582.869
  H     1301.348    -631.809    -581.856
  H     1302.404    -630.972    -580.683
  P     1303.000    -627.188    -579.845
  C     1302.342    -624.788    -580.626
  O     1303.390    -625.669    -580.232
  O     1304.310    -627.716    -579.083
  O     1301.768    -627.359    -579.023
  H     1304.214    -627.574    -578.121
  H     1302.751    -623.825    -580.850
  H     1301.633    -624.698    -579.829
  H     1301.855    -625.179    -581.495

 6  7  8  9  10  11  12  13  14  15  26  29  33  34 0
 6-311+G(2d,p)
 ****
 36  38  39  40  41 0
 6-311+G(2d,p)
 ****
 1  2  3  4  5  16  17  18  19  20  21  22  23  24  25 0
 3-21G
 ****
 27  28  30  31  32  35  37  42  43  44  45  46  47 0
 3-21G
 ****
 48  49 0
 3-21G
 ****


