%nproc=1
%NoSave
%Mem=1900MB
#P OB98/GEN NMR

erre ene a

0 1
  C       14.460     -16.470     -39.691
  O       14.241     -15.141     -40.126
  P       15.187     -14.497     -41.246
  C       16.315     -12.936     -39.496
  O       16.479     -13.921     -40.493
  C       16.889     -11.587     -39.950
  O       18.322     -11.743     -40.103
  C       16.376     -11.093     -41.299
  O       16.643      -9.693     -41.401
  C       17.261     -11.852     -42.264
  O       17.299     -11.246     -43.553
  C       18.616     -11.896     -41.513
  N       19.328     -13.164     -41.752
  C       20.307     -13.160     -42.742
  O       20.641     -12.143     -43.347
  N       20.831     -14.381     -43.070
  C       20.436     -15.575     -42.544
  O       20.682     -16.663     -43.055
  C       19.582     -15.492     -41.349
  C       19.052     -14.309     -41.027
  O       14.381     -13.185     -41.681
  O       15.475     -15.383     -42.409
  H       17.898     -11.796     -44.109
  H       13.855     -13.363     -42.482
  H       21.435     -14.395     -43.884
  H       19.366     -16.405     -40.811
  H       18.376     -14.225     -40.179
  H       19.274     -11.076     -41.825
  H       16.868     -12.869     -42.387
  H       15.314     -11.292     -41.476
  H       16.712     -10.836     -39.170
  H       16.800     -13.271     -38.575
  H       15.252     -12.809     -39.258
  P       15.432      -8.728     -41.822
  C       16.197      -8.553     -44.267
  O       15.178      -8.978     -43.385
  O       15.564      -7.299     -41.412
  O       14.160      -9.428     -41.140
  H       13.428      -8.787     -41.073
  H       16.186      -9.192     -45.155
  H       17.184      -8.615     -43.799
  H       16.004      -7.521     -44.571
  H       13.736     -16.725     -38.946
  H       15.443     -16.552     -39.276
  H       14.366     -17.137     -40.522

 3  4  5  6  7  8  9  10  11  12  13  23  28  29  30  31  32 0
 6-311+G(2d,p)
 ****
 33  34 0
 6-311+G(2d,p)
 ****
 1  2  14  15  16  17  18  19  20  21  22  24  25  26  27 0
 3-21G
 ****
 35  36  37  38  39  40  41  42  43  44  45 0
 3-21G
 ****


