%nproc=1
%NoSave
%Mem=1900MB
#P OB98/GEN NMR

erre ene a

0 1
  C      148.465    -103.643     254.757
  O      147.212    -104.245     254.990
  H      149.012    -104.254     254.033
  H      149.050    -103.593     255.678
  H      148.335    -102.641     254.339
  P      146.272    -103.659     256.155
  C      146.769    -105.549     257.821
  O      146.953    -104.169     257.528
  C      146.439    -105.770     259.297
  O      146.282    -107.191     259.557
  C      147.510    -105.237     260.261
  O      146.883    -104.502     261.314
  C      148.153    -106.507     260.816
  O      148.764    -106.289     262.085
  C      146.961    -107.472     260.795
  N      147.363    -108.874     260.883
  C      146.627    -109.678     261.760
  O      145.717    -109.188     262.436
  N      146.958    -111.004     261.880
  C      147.974    -111.476     261.223
  N      148.260    -112.792     261.393
  C      148.804    -110.652     260.324
  C      148.443    -109.374     260.197
  O      144.823    -103.989     256.014
  O      146.576    -102.090     256.168
  H      149.196    -107.121     262.370
  H      145.832    -101.615     256.618
  H      149.647    -111.088     259.803
  H      148.994    -108.697     259.548
  H      146.273    -107.261     261.622
  H      148.929    -106.860     260.121
  H      148.246    -104.604     259.778
  H      145.458    -105.314     259.504
  H      147.663    -113.327     262.018
  H      147.681    -106.092     257.551
  H      149.024    -113.268     260.937
  H      145.935    -105.922     257.210
  P      147.080    -102.906     261.268
  C      149.193    -102.871     262.767
  O      148.644    -102.595     261.488
  O      146.392    -102.415     262.627
  O      146.463    -102.259     260.068
  H      145.497    -102.065     262.447
  H      150.233    -102.619     262.771
  H      149.078    -103.912     262.988
  H      148.682    -102.291     263.507

 6  7  8  9  10  11  12  13  14  15  16  26  30  31  32  33  35 0
 6-311+G(2d,p)
 ****
 37  38 0
 6-311+G(2d,p)
 ****
 1  2  3  4  5  17  18  19  20  21  22  23  24  25 0
 3-21G
 ****
 27  28  29  34  36  39  40  41  42  43  44  45  46 0
 3-21G
 ****


