%nproc=1
%NoSave
%Mem=1900MB
#P OB98/GEN NMR

erre ene a

0 1
  C       41.993      57.426      49.463
  O       43.322      57.913      49.546
  P       44.162      57.780      50.899
  C       43.894      58.854      53.280
  O       43.722      58.956      51.883
  C       43.476      60.181      53.930
  O       44.381      61.234      53.538
  C       42.066      60.590      53.512
  O       41.114      60.152      54.469
  C       42.175      62.099      53.413
  O       42.057      62.699      54.717
  C       43.614      62.274      52.872
  N       43.831      62.141      51.418
  C       43.220      63.039      50.547
  O       42.518      63.975      50.914
  N       43.427      62.803      49.210
  C       44.204      61.811      48.686
  O       44.187      61.466      47.510
  C       45.029      61.079      49.651
  C       44.793      61.257      50.950
  O       45.637      58.206      50.451
  O       44.138      56.431      51.540
  H       41.141      62.558      55.016
  H       46.188      57.418      50.287
  H       42.874      63.365      48.571
  H       45.763      60.380      49.272
  H       45.366      60.696      51.684
  H       44.033      63.240      53.174
  H       41.367      62.515      52.813
  H       41.834      60.190      52.516
  H       43.535      60.075      55.021
  H       44.940      58.629      53.514
  H       43.289      58.032      53.675
  P       39.892      59.231      54.004
  C       37.768      59.666      52.638
  O       38.801      60.245      53.410
  O       39.385      58.268      55.026
  O       40.472      58.477      52.713
  H       40.786      57.584      52.964
  H       37.004      60.424      52.449
  H       37.312      58.826      53.172
  H       38.170      59.324      51.681
  H       41.607      57.609      48.482
  H       41.384      57.928      50.185
  H       41.986      56.374      49.659

 3  4  5  6  7  8  9  10  11  12  13  23  28  29  30  31  32 0
 6-311+G(2d,p)
 ****
 33  34 0
 6-311+G(2d,p)
 ****
 1  2  14  15  16  17  18  19  20  21  22  24  25  26  27 0
 3-21G
 ****
 35  36  37  38  39  40  41  42  43  44  45 0
 3-21G
 ****


