%nproc=1
%NoSave
%Mem=1900MB
#P OB98/GEN NMR

erre ene a

0 1
  C      -25.314     232.620     658.016
  O      -24.354     232.333     659.010
  H      -25.658     233.649     658.150
  H      -26.172     231.947     658.109
  H      -24.869     232.527     657.020
  P      -23.744     230.847     659.012
  C      -21.722     231.592     660.451
  O      -22.880     230.769     660.366
  C      -21.138     231.555     661.861
  O      -21.957     232.315     662.765
  C      -21.026     230.156     662.465
  O      -19.844     229.509     662.014
  C      -20.964     230.477     663.947
  O      -19.622     230.859     664.304
  C      -21.905     231.685     664.074
  N      -24.954     230.655     668.087
  C      -23.614     230.738     667.975
  N      -22.868     230.957     666.866
  C      -23.653     231.119     665.793
  C      -25.036     231.053     665.743
  C      -25.695     230.821     666.964
  N      -27.077     230.728     667.069
  N      -25.501     231.258     664.462
  C      -24.408     231.493     663.754
  N      -23.266     231.388     664.503
  O      -23.045     230.433     657.761
  O      -25.043     229.987     659.385
  H      -19.334     231.526     663.658
  H      -25.567     230.440     660.074
  H      -23.055     230.601     668.901
  H      -24.394     231.779     662.698
  H      -21.509     232.430     664.775
  H      -21.224     229.621     664.577
  H      -21.930     229.554     662.257
  H      -20.143     232.044     661.835
  H      -21.969     232.632     660.180
  H      -27.441     230.370     667.928
  H      -27.608     230.727     666.213
  H      -20.990     231.218     659.730
  P      -19.740     227.916     661.947
  C      -18.587     228.054     659.649
  O      -18.473     227.626     660.998
  O      -21.005     227.225     661.569
  O      -19.207     227.491     663.396
  H      -19.359     226.541     663.549
  H      -17.690     227.809     659.120
  H      -18.738     229.113     659.622
  H      -19.419     227.563     659.188

 6  7  8  9  10  11  12  13  14  15  25  28  32  33  34  35 0
 6-311+G(2d,p)
 ****
 36  39  40 0
 6-311+G(2d,p)
 ****
 1  2  3  4  5  16  17  18  19  20  21  22  23  24 0
 3-21G
 ****
 26  27  29  30  31  37  38  41  42  43  44  45  46  47 0
 3-21G
 ****
 48 0
 3-21G
 ****


