%nproc=1
%NoSave
%Mem=1900MB
#P OB98/GEN NMR

erre ene a

0 1
  C     1023.825     238.399    -103.449
  O     1022.665     238.892    -104.087
  H     1023.525     237.665    -102.697
  H     1024.354     239.211    -102.948
  H     1024.489     237.910    -104.167
  P     1022.834     239.860    -105.352
  C     1022.254     237.942    -106.977
  O     1023.205     238.936    -106.608
  C     1021.529     238.369    -108.254
  O     1022.493     238.562    -109.324
  C     1020.543     237.331    -108.777
  O     1019.351     237.317    -108.009
  C     1020.380     237.791    -110.211
  O     1019.434     238.870    -110.305
  C     1021.802     238.285    -110.562
  N     1022.540     237.304    -111.364
  C     1021.898     236.825    -112.496
  O     1020.764     237.197    -112.839
  N     1022.562     235.859    -113.196
  C     1023.712     235.248    -112.800
  O     1024.142     234.218    -113.330
  C     1024.385     235.829    -111.634
  C     1023.768     236.813    -110.967
  O     1023.726     241.040    -105.146
  O     1021.330     240.320    -105.677
  H     1021.185     241.220    -105.334
  H     1019.274     239.003    -111.261
  H     1022.077     235.474    -114.007
  H     1025.339     235.417    -111.331
  H     1024.221     237.234    -110.085
  H     1021.757     239.229    -111.120
  H     1020.029     236.982    -110.862
  H     1021.014     236.339    -108.767
  H     1021.027     239.330    -108.066
  H     1021.519     237.844    -106.165
  H     1022.769     236.993    -107.119
  P     1018.379     236.038    -108.059
  C     1019.787     234.679    -106.393
  O     1019.249     234.739    -107.702
  O     1017.544     235.922    -109.288
  O     1017.457     236.210    -106.751
  H     1016.517     236.120    -107.026
  H     1020.343     233.772    -106.277
  H     1018.991     234.703    -105.679
  H     1020.434     235.517    -106.234

 6  7  8  9  10  11  12  13  14  15  16  27  31  32  33  34  35 0
 6-311+G(2d,p)
 ****
 36  37 0
 6-311+G(2d,p)
 ****
 1  2  3  4  5  17  18  19  20  21  22  23  24  25 0
 3-21G
 ****
 26  28  29  30  38  39  40  41  42  43  44  45 0
 3-21G
 ****


