%nproc=1
%NoSave
%Mem=1900MB
#P OB98/GEN NMR

erre ene a

0 1
  C      -62.565    -351.350    -454.391
  O      -63.686    -351.185    -453.528
  P      -65.143    -351.150    -454.204
  C      -65.565    -353.620    -453.476
  O      -65.534    -352.678    -454.542
  C      -66.970    -354.191    -453.291
  O      -67.461    -354.661    -454.581
  C      -67.058    -355.367    -452.302
  O      -68.319    -355.267    -451.642
  C      -67.035    -356.565    -453.250
  O      -67.478    -357.781    -452.659
  C      -67.885    -356.026    -454.396
  N      -70.293    -358.005    -458.461
  C      -70.731    -357.230    -457.441
  N      -70.035    -356.734    -456.400
  C      -68.737    -357.104    -456.472
  C      -68.150    -357.901    -457.438
  C      -68.986    -358.363    -458.476
  N      -68.539    -359.159    -459.517
  N      -66.805    -358.088    -457.179
  C      -66.591    -357.410    -456.067
  N      -67.723    -356.789    -455.616
  O      -64.865    -350.512    -455.642
  O      -66.179    -350.383    -453.434
  H      -67.056    -357.908    -451.789
  H      -65.586    -349.910    -455.907
  H      -71.789    -356.976    -457.460
  H      -65.638    -357.359    -455.548
  H      -68.958    -356.022    -454.144
  H      -65.999    -356.735    -453.577
  H      -66.260    -355.375    -451.555
  H      -67.635    -353.371    -452.963
  H      -65.265    -353.123    -452.539
  H      -69.249    -359.596    -460.090
  H      -67.619    -359.585    -459.407
  H      -64.833    -354.418    -453.677
  P      -68.492    -355.950    -450.198
  C      -68.663    -353.672    -448.998
  O      -67.901    -354.849    -449.170
  O      -67.318    -357.038    -450.223
  O      -69.847    -356.501    -449.898
  H      -66.467    -356.631    -450.484
  H      -68.199    -353.068    -448.215
  H      -69.691    -353.930    -448.693
  H      -68.683    -353.097    -449.926
  H      -61.666    -351.355    -453.811
  H      -62.532    -350.542    -455.092
  H      -62.654    -352.277    -454.919

 3  4  5  6  7  8  9  10  11  12  22  25  29  30  31  32 0
 6-311+G(2d,p)
 ****
 33  36  37 0
 6-311+G(2d,p)
 ****
 1  2  13  14  15  16  17  18  19  20  21  23  24  26 0
 3-21G
 ****
 27  28  34  35  38  39  40  41  42  43  44  45  46  47  48 0
 3-21G
 ****


