%nproc=1
%NoSave
%Mem=1900MB
#P OB98/GEN NMR

erre ene a

0 1
  C      -18.823     -82.678      82.500
  O      -18.017     -81.546      82.789
  P      -16.452     -81.633      82.445
  C      -15.838     -81.978      84.956
  O      -15.663     -81.208      83.779
  C      -14.936     -81.456      86.079
  O      -15.141     -82.277      87.258
  C      -13.434     -81.485      85.764
  O      -12.843     -80.376      86.448
  C      -12.975     -82.785      86.400
  O      -11.575     -82.801      86.660
  C      -13.855     -82.813      87.646
  N      -11.515     -86.685      89.912
  C      -10.998     -85.493      89.437
  N       -9.679     -85.282      89.656
  N      -11.706     -84.589      88.814
  C      -13.010     -84.933      88.684
  C      -13.632     -86.097      89.073
  C      -12.846     -87.071      89.798
  O      -13.279     -88.098      90.310
  N      -14.946     -86.117      88.691
  C      -15.141     -84.935      88.143
  N      -14.008     -84.162      88.159
  O      -16.232     -80.392      81.464
  O      -15.987     -82.927      81.853
  H      -11.332     -83.707      86.942
  H      -16.305     -80.667      80.527
  H      -10.925     -87.333      90.402
  H      -16.071     -84.580      87.728
  H      -13.458     -82.191      88.459
  H      -13.206     -83.626      85.734
  H       -9.082     -85.921      90.156
  H      -13.212     -81.437      84.692
  H       -9.281     -84.401      89.346
  H      -15.254     -80.439      86.332
  H      -15.564     -83.017      84.745
  H      -16.892     -81.951      85.260
  P      -12.240     -79.179      85.563
  C      -10.035     -80.406      84.969
  O      -10.647     -79.301      85.608
  O      -12.534     -77.887      86.463
  O      -12.852     -79.037      84.206
  H      -12.695     -77.117      85.888
  H       -8.997     -80.152      84.737
  H      -10.549     -80.670      84.037
  H      -10.046     -81.269      85.643
  H      -19.836     -82.476      82.780
  H      -18.462     -83.522      83.050
  H      -18.778     -82.889      81.452

 3  4  5  6  7  8  9  10  11  12  23  26  30  31 0
 6-311+G(2d,p)
 ****
 33  35  36  37  38 0
 6-311+G(2d,p)
 ****
 1  2  13  14  15  16  17  18  19  20  21  22  24  25 0
 3-21G
 ****
 27  28  29  32  34  39  40  41  42  43  44  45  46  47  48  49 0
 3-21G
 ****


