%nproc=1
%NoSave
%Mem=1900MB
#P OB98/GEN NMR

erre ene a

0 1
  C       32.584     656.722     146.395
  O       32.406     656.455     147.768
  H       33.128     657.664     146.289
  H       31.609     656.824     145.912
  H       33.155     655.929     145.904
  P       32.061     654.961     148.223
  C       30.160     656.034     149.602
  O       31.175     655.038     149.559
  C       29.879     656.498     151.030
  O       29.468     655.371     151.832
  C       31.118     657.095     151.709
  O       31.309     658.478     151.465
  C       30.830     656.831     153.183
  O       30.067     657.900     153.765
  C       30.002     655.538     153.157
  N       31.720     652.554     156.937
  C       31.091     653.783     157.018
  N       30.943     654.289     158.262
  N       30.674     654.450     155.977
  C       30.986     653.866     154.797
  C       31.624     652.661     154.589
  C       32.014     651.896     155.754
  O       32.557     650.795     155.735
  N       31.800     652.409     153.254
  C       31.354     653.499     152.656
  N       30.775     654.376     153.548
  O       33.463     654.405     148.770
  O       31.523     654.066     147.146
  H       29.957     657.712     154.715
  H       33.520     653.446     148.610
  H       31.994     652.077     157.776
  H       31.379     653.685     151.589
  H       29.147     655.597     153.841
  H       31.755     656.756     153.753
  H       31.323     653.860     159.094
  H       32.018     656.538     151.429
  H       30.659     655.269     158.355
  H       29.043     657.209     151.021
  H       29.263     655.581     149.171
  H       30.435     656.885     148.968
  P       32.427     658.991     150.447
  C       33.177     660.799     152.198
  O       32.852     660.470     150.863
  O       31.608     659.209     149.092
  O       33.587     658.071     150.253
  H       31.715     658.447     148.493
  H       33.432     661.836     152.258
  H       34.009     660.208     152.518
  H       32.336     660.602     152.829

 6  7  8  9  10  11  12  13  14  15  26  29  33  34 0
 6-311+G(2d,p)
 ****
 36  38  39  40  41 0
 6-311+G(2d,p)
 ****
 1  2  3  4  5  16  17  18  19  20  21  22  23  24  25 0
 3-21G
 ****
 27  28  30  31  32  35  37  42  43  44  45  46  47 0
 3-21G
 ****
 48  49 0
 3-21G
 ****


