%nproc=1
%NoSave
%Mem=1900MB
#P OB98/GEN NMR

erre ene a

0 1
  C     -159.832     687.400     177.744
  O     -160.251     688.342     176.765
  P     -160.346     689.915     177.105
  C     -162.453     689.574     178.554
  O     -161.897     690.175     177.408
  C     -163.960     689.818     178.592
  O     -164.239     691.205     178.830
  C     -164.693     689.463     177.285
  O     -164.838     688.052     177.151
  C     -165.981     690.247     177.458
  O     -166.886     689.540     178.324
  C     -165.489     691.533     178.154
  N     -165.315     692.656     177.249
  C     -166.376     693.560     177.192
  O     -167.384     693.422     177.870
  N     -166.249     694.656     176.341
  C     -165.179     694.807     175.633
  N     -165.080     695.938     174.884
  C     -164.055     693.842     175.634
  C     -164.196     692.795     176.457
  O     -159.735     690.810     176.096
  O     -159.684     690.038     178.567
  H     -167.741     690.015     178.281
  H     -158.706     690.170     178.548
  H     -163.199     694.004     175.019
  H     -163.415     692.064     176.537
  H     -166.183     691.812     178.962
  H     -166.493     690.457     176.517
  H     -164.128     689.852     176.436
  H     -164.382     689.227     179.435
  H     -165.788     696.646     175.043
  H     -162.011     690.035     179.449
  H     -164.188     696.280     174.544
  H     -162.225     688.497     178.561
  P     -164.448     687.390     175.737
  C     -166.888     687.793     174.899
  O     -165.835     686.865     175.104
  O     -163.664     686.075     176.161
  O     -163.652     688.289     174.850
  H     -162.694     686.208     176.064
  H     -167.632     687.327     174.259
  H     -166.502     688.680     174.389
  H     -167.338     688.075     175.853
  H     -159.838     686.418     177.319
  H     -160.501     687.432     178.579
  H     -158.842     687.642     178.071

 3  4  5  6  7  8  9  10  11  12  13  23  27  28  29  30  32 0
 6-311+G(2d,p)
 ****
 34  35 0
 6-311+G(2d,p)
 ****
 1  2  14  15  16  17  18  19  20  21  22  24  25  26 0
 3-21G
 ****
 31  33  36  37  38  39  40  41  42  43  44  45  46 0
 3-21G
 ****


