%nproc=1
%NoSave
%Mem=1900MB
#P OB98/GEN NMR

erre ene a

0 1
  C      410.452    -259.141     267.955
  O      411.199    -258.184     268.683
  H      410.117    -259.920     268.647
  H      411.078    -259.605     267.186
  H      409.577    -258.685     267.494
  P      411.681    -256.851     267.935
  C      413.382    -256.258     266.087
  O      412.830    -257.280     266.903
  C      414.911    -256.336     266.121
  O      415.364    -257.567     265.524
  C      415.599    -255.211     265.362
  O      415.569    -254.000     266.088
  C      416.986    -255.806     265.170
  O      417.782    -255.644     266.356
  C      416.661    -257.304     264.926
  N      416.673    -257.661     263.509
  C      417.915    -257.655     262.885
  O      418.961    -257.335     263.456
  N      417.921    -258.008     261.556
  C      416.818    -258.242     260.791
  O      416.867    -258.464     259.585
  C      415.530    -258.211     261.497
  C      415.515    -257.925     262.802
  O      412.027    -255.701     268.820
  O      410.449    -256.498     266.970
  H      417.773    -254.689     266.561
  H      409.957    -255.742     267.341
  H      418.805    -257.993     261.088
  H      414.631    -258.402     260.929
  H      414.570    -257.895     263.343
  H      417.383    -257.941     265.450
  H      417.532    -255.337     264.352
  H      415.138    -255.088     264.374
  H      415.224    -256.336     267.178
  H      413.057    -255.286     266.474
  H      413.013    -256.381     265.058
  P      415.770    -252.611     265.325
  C      417.732    -251.182     264.474
  O      417.345    -252.315     265.240
  O      414.940    -251.469     265.829
  O      415.389    -252.955     263.803
  H      414.630    -252.395     263.521
  H      418.798    -251.087     264.491
  H      417.289    -250.302     264.891
  H      417.401    -251.304     263.464

 6  7  8  9  10  11  12  13  14  15  16  26  31  32  33  34  35 0
 6-311+G(2d,p)
 ****
 36  37 0
 6-311+G(2d,p)
 ****
 1  2  3  4  5  17  18  19  20  21  22  23  24  25 0
 3-21G
 ****
 27  28  29  30  38  39  40  41  42  43  44  45 0
 3-21G
 ****


