%nproc=1
%NoSave
%Mem=1900MB
#P OB98/GEN NMR

erre ene a

0 1
  C     -282.086    -126.502     280.442
  O     -282.745    -126.217     281.659
  H     -281.817    -127.561     280.427
  H     -281.175    -125.901     280.360
  H     -282.745    -126.292     279.594
  P     -283.261    -124.710     281.856
  C     -281.871    -124.361     284.035
  O     -283.156    -124.414     283.430
  C     -281.897    -123.424     285.247
  O     -282.481    -122.152     284.841
  C     -282.744    -123.954     286.417
  O     -282.185    -123.456     287.645
  C     -284.079    -123.274     286.166
  O     -284.882    -123.321     287.318
  C     -283.588    -121.897     285.730
  N     -287.982    -119.393     286.387
  C     -287.150    -120.001     287.261
  N     -285.990    -120.641     287.007
  C     -285.700    -120.588     285.694
  C     -286.449    -120.008     284.686
  C     -287.649    -119.390     285.074
  N     -288.512    -118.790     284.186
  N     -285.833    -120.187     283.460
  C     -284.730    -120.856     283.728
  N     -284.609    -121.119     285.064
  O     -284.837    -124.827     281.597
  O     -282.622    -123.688     280.980
  H     -285.699    -122.794     287.202
  H     -285.033    -124.642     280.659
  H     -287.458    -119.973     288.302
  H     -283.997    -121.183     283.003
  H     -283.216    -121.300     286.572
  H     -284.628    -123.771     285.360
  H     -282.801    -125.044     286.455
  H     -280.868    -123.214     285.562
  H     -281.153    -123.997     283.295
  H     -281.581    -125.365     284.357
  H     -289.365    -118.393     284.544
  H     -288.295    -118.809     283.200
  P     -280.875    -124.163     288.248
  C     -281.415    -125.067     290.637
  O     -280.851    -124.031     289.847
  O     -279.717    -123.143     287.810
  O     -280.582    -125.529     287.720
  H     -278.962    -123.642     287.443
  H     -281.315    -124.820     291.673
  H     -280.904    -125.986     290.438
  H     -282.451    -125.176     290.395

 6  7  8  9  10  11  12  13  14  15  25  28  32  33  34  35 0
 6-311+G(2d,p)
 ****
 36  37  40 0
 6-311+G(2d,p)
 ****
 1  2  3  4  5  16  17  18  19  20  21  22  23  24 0
 3-21G
 ****
 26  27  29  30  31  38  39 41  42  43  44  45  46  47  48 0
 3-21G
 ****


