%nproc=1
%NoSave
%Mem=1900MB
#P OB98/GEN NMR

erre ene a

0 1
  C     1457.068     150.139     764.654
  O     1456.285     149.200     763.896
  P     1455.098     149.819     763.017
  C     1453.146     149.532     764.687
  O     1453.995     150.431     764.002
  C     1451.651     149.827     764.436
  O     1450.840     148.650     764.680
  C     1451.101     150.949     765.353
  O     1450.115     151.677     764.618
  C     1450.409     150.171     766.465
  O     1449.446     150.998     767.168
  C     1449.826     149.009     765.666
  N     1446.720     144.959     766.178
  C     1446.830     145.946     765.228
  N     1447.668     146.995     765.169
  C     1448.515     146.992     766.229
  C     1448.531     146.065     767.290
  C     1447.572     145.043     767.218
  N     1447.474     144.073     768.210
  N     1449.507     146.413     768.206
  C     1450.068     147.502     767.711
  N     1449.499     147.858     766.517
  O     1454.363     148.530     762.409
  O     1455.525     150.752     761.924
  H     1448.778     151.274     766.496
  H     1454.585     148.445     761.454
  H     1446.121     145.843     764.392
  H     1450.852     148.080     768.188
  H     1448.895     149.281     765.132
  H     1451.153     149.816     767.179
  H     1451.850     151.643     765.732
  H     1451.522     150.109     763.406
  H     1453.323     149.586     765.784
  H     1446.756     143.381     768.103
  H     1448.053     144.127     769.018
  H     1453.385     148.481     764.407
  P     1450.591     152.980     763.821
  C     1450.098     154.651     765.749
  O     1451.069     154.013     764.963
  O     1449.258     153.627     763.288
  O     1451.574     152.717     762.724
  H     1449.450     154.166     762.508
  H     1450.448     154.684     766.787
  H     1449.128     154.137     765.737
  H     1449.963     155.685     765.402
  H     1457.826     149.615     765.198
  H     1456.434     150.661     765.339
  H     1457.527     150.840     763.988

 3  4  5  6  7  8  9  10  11  12  22  25  29  30  31  32 0
 6-311+G(2d,p)
 ****
 33  36  37 0
 6-311+G(2d,p)
 ****
 1  2  13  14  15  16  17  18  19  20  21  23  24  26 0
 3-21G
 ****
 27  28  34  35  38  39  40  41  42  43  44  45  46  47  48 0
 3-21G
 ****


