%nproc=1
%NoSave
%Mem=1900MB
#P OB98/GEN NMR

erre ene a

0 1
  C      450.159    1176.728     157.788
  O      448.821    1176.722     158.248
  P      448.147    1178.013     158.889
  C      447.511    1176.853     161.088
  O      448.313    1177.864     160.487
  C      447.712    1176.857     162.616
  O      449.014    1176.356     162.960
  C      447.604    1178.243     163.261
  O      446.242    1178.634     163.362
  C      448.307    1177.992     164.582
  O      447.409    1177.400     165.549
  C      449.418    1176.997     164.184
  N      450.722    1177.629     164.063
  C      451.816    1176.800     164.163
  O      451.684    1175.566     164.385
  N      453.090    1177.336     164.083
  C      453.216    1178.618     163.926
  N      454.489    1179.104     163.864
  C      452.070    1179.557     163.848
  C      450.875    1178.995     163.927
  O      446.777    1178.336     158.400
  O      449.234    1179.177     158.548
  H      447.852    1177.470     166.417
  H      449.197    1179.414     157.592
  H      452.242    1180.615     163.737
  H      449.969    1179.611     163.872
  H      449.504    1176.197     164.937
  H      448.673    1178.925     165.030
  H      448.167    1178.949     162.668
  H      446.940    1176.181     163.056
  H      455.248    1178.430     163.954
  H      447.808    1175.891     160.705
  H      454.723    1180.089     163.785
  H      446.453    1177.021     160.845
  P      445.889    1180.191     163.461
  C      445.091    1179.737     165.864
  O      445.853    1180.577     165.025
  O      444.707    1180.627     162.652
  O      447.227    1180.924     162.933
  H      446.963    1181.640     162.326
  H      445.412    1179.895     166.892
  H      445.263    1178.682     165.607
  H      444.032    1179.981     165.772
  H      450.406    1175.763     157.397
  H      450.814    1176.963     158.601
  H      450.268    1177.463     157.018

 3  4  5  6  7  8  9  10  11  12  13  23  27  28  29  30  32 0
 6-311+G(2d,p)
 ****
 34  35 0
 6-311+G(2d,p)
 ****
 1  2  14  15  16  17  18  19  20  21  22  24  25  26 0
 3-21G
 ****
 31  33  36  37  38  39  40  41  42  43  44  45  46 0
 3-21G
 ****


