%nproc=1
%NoSave
%Mem=1900MB
#P OB98/GEN NMR

erre ene a

0 1
  C      -31.018     308.163    -277.745
  O      -30.341     307.523    -276.679
  P      -28.934     308.074    -276.154
  C      -28.511     306.989    -273.875
  O      -28.260     306.915    -275.271
  C      -28.351     305.623    -273.207
  O      -29.566     304.846    -273.416
  C      -27.177     304.787    -273.733
  O      -26.675     304.033    -272.624
  C      -27.849     303.848    -274.724
  O      -27.079     302.685    -274.995
  C      -29.166     303.586    -273.995
  N      -30.423     299.993    -277.410
  C      -29.278     300.233    -276.736
  N      -29.011     301.223    -275.863
  C      -30.084     302.021    -275.709
  C      -31.309     301.923    -276.351
  C      -31.472     300.834    -277.227
  N      -32.642     300.557    -277.895
  N      -32.136     302.964    -275.969
  C      -31.421     303.670    -275.117
  N      -30.201     303.105    -274.884
  O      -28.979     309.414    -275.496
  O      -28.020     308.108    -277.468
  H      -27.623     302.068    -275.516
  H      -27.901     309.032    -277.764
  H      -28.467     299.531    -276.919
  H      -31.738     304.596    -274.650
  H      -29.049     302.859    -273.186
  H      -28.015     304.375    -275.672
  H      -26.379     305.379    -274.191
  H      -28.254     305.780    -272.125
  H      -29.540     307.337    -273.735
  H      -32.691     299.681    -278.393
  H      -33.505     300.997    -277.578
  H      -27.834     307.718    -273.410
  P      -25.110     303.693    -272.531
  C      -24.714     304.343    -270.088
  O      -24.828     303.276    -271.011
  O      -24.197     304.728    -273.095
  O      -24.983     302.300    -273.318
  H      -24.050     302.146    -273.561
  H      -23.713     304.777    -270.150
  H      -24.874     303.957    -269.077
  H      -25.456     305.119    -270.293
  H      -31.934     307.648    -277.946
  H      -30.401     308.148    -278.619
  H      -31.231     309.176    -277.475

 3  4  5  6  7  8  9  10  11  12  22  25  29  30  31  32 0
 6-311+G(2d,p)
 ****
 33  36  37 0
 6-311+G(2d,p)
 ****
 1  2  13  14  15  16  17  18  19  20  21  23  24  26 0
 3-21G
 ****
 27  28  34  35  38  39  40  41  42  43  44  45  46  47  48 0
 3-21G
 ****


