%nproc=1
%NoSave
%Mem=1900MB
#P OB98/GEN NMR

erre ene a

0 1
  C     -112.706     -11.265    -301.963
  O     -113.907     -11.424    -301.236
  H     -112.918     -11.421    -303.025
  H     -111.970     -12.007    -301.645
  H     -112.303     -10.257    -301.831
  P     -113.897     -11.151    -299.657
  C     -115.740      -9.387    -299.978
  O     -115.343     -10.559    -299.283
  C     -117.263      -9.314    -300.083
  O     -117.726     -10.407    -300.915
  C     -117.977      -9.415    -298.731
  O     -119.109      -8.543    -298.751
  C     -118.445     -10.857    -298.688
  O     -119.595     -11.029    -297.861
  C     -118.709     -11.146    -300.164
  N     -121.259     -15.139    -301.915
  C     -121.631     -13.811    -301.829
  N     -122.875     -13.500    -302.247
  N     -120.849     -12.870    -301.369
  C     -119.626     -13.321    -300.998
  C     -119.141     -14.606    -301.033
  C     -120.020     -15.642    -301.531
  O     -119.752     -16.835    -301.619
  N     -117.859     -14.666    -300.545
  C     -117.573     -13.420    -300.213
  N     -118.618     -12.568    -300.459
  O     -112.749     -10.337    -299.154
  O     -113.920     -12.612    -299.010
  H     -119.536     -10.361    -297.144
  H     -113.026     -12.875    -298.722
  H     -121.904     -15.824    -302.269
  H     -116.636     -13.085    -299.789
  H     -119.707     -10.819    -300.483
  H     -117.643     -11.495    -298.300
  H     -123.526     -14.169    -302.629
  H     -117.330      -9.166    -297.885
  H     -123.162     -12.528    -302.216
  H     -117.530      -8.385    -300.600
  H     -115.303      -9.418    -300.981
  H     -115.357      -8.505    -299.452
  P     -118.945      -7.054    -298.182
  C     -120.339      -5.974    -300.061
  O     -120.211      -6.194    -298.660
  O     -117.616      -6.415    -298.417
  O     -119.225      -7.241    -296.613
  H     -118.716      -6.569    -296.120
  H     -121.216      -5.392    -300.252
  H     -120.419      -6.915    -300.564
  H     -119.478      -5.450    -300.420

 6  7  8  9  10  11  12  13  14  15  26  29  33  34 0
 6-311+G(2d,p)
 ****
 36  38  39  40  41 0
 6-311+G(2d,p)
 ****
 1  2  3  4  5  16  17  18  19  20  21  22  23  24  25 0
 3-21G
 ****
 27  28  30  31  32  35  37  42  43  44  45  46  47 0
 3-21G
 ****
 48  49 0
 3-21G
 ****


