%nproc=1
%NoSave
%Mem=1900MB
#P OB98/GEN NMR

erre ene a

0 1
  C      150.683     264.449     744.534
  O      151.344     263.296     744.049
  P      152.249     262.420     745.032
  C      154.514     263.562     744.632
  O      153.738     262.390     744.434
  C      156.002     263.214     744.660
  O      156.313     262.441     745.837
  C      156.463     262.368     743.477
  O      156.597     263.159     742.314
  C      157.767     261.798     744.018
  O      158.836     262.748     743.871
  C      157.437     261.591     745.499
  N      159.145     257.356     747.777
  C      159.750     258.524     747.485
  N      159.236     259.594     746.839
  C      157.965     259.355     746.464
  C      157.228     258.201     746.663
  C      157.865     257.167     747.381
  N      157.236     255.995     747.738
  N      155.969     258.327     746.106
  C      155.953     259.531     745.572
  N      157.111     260.214     745.823
  O      151.685     261.086     745.403
  O      152.403     263.345     746.331
  H      159.653     262.314     744.180
  H      152.028     262.885     747.105
  H      160.775     258.621     747.820
  H      155.128     259.958     745.016
  H      158.265     261.892     746.151
  H      158.073     260.884     743.499
  H      155.753     261.548     743.315
  H      156.573     264.149     744.711
  H      154.222     264.013     745.586
  H      157.731     255.384     748.370
  H      156.221     255.967     747.718
  H      154.311     264.278     743.829
  P      155.922     262.675     740.946
  C      157.982     261.700     739.766
  O      157.053     262.765     739.814
  O      154.622     263.325     740.597
  O      155.747     261.097     741.145
  H      154.954     260.791     740.663
  H      158.725     261.830     740.560
  H      158.489     261.717     738.800
  H      157.478     260.739     739.889
  H      150.129     264.903     743.739
  H      151.406     265.144     744.907
  H      150.014     264.172     745.322

 3  4  5  6  7  8  9  10  11  12  22  25  29  30  31  32 0
 6-311+G(2d,p)
 ****
 33  36  37 0
 6-311+G(2d,p)
 ****
 1  2  13  14  15  16  17  18  19  20  21  23  24  26 0
 3-21G
 ****
 27  28  34  35  38  39  40  41  42  43  44  45  46  47  48 0
 3-21G
 ****


