%nproc=1
%NoSave
%Mem=1900MB
#P OB98/GEN NMR

erre ene a

0 1
  C      188.463    -562.019    -207.956
  O      189.718    -561.991    -207.270
  P      190.993    -562.778    -207.855
  C      192.748    -561.016    -207.211
  O      192.298    -562.353    -207.015
  C      193.965    -560.646    -206.377
  O      193.638    -560.620    -204.959
  C      195.175    -561.577    -206.537
  O      196.328    -560.754    -206.378
  C      195.016    -562.520    -205.359
  O      196.215    -563.206    -205.032
  C      194.498    -561.560    -204.277
  N      193.803    -562.261    -203.201
  C      194.593    -562.786    -202.176
  O      195.825    -562.702    -202.233
  N      193.982    -563.429    -201.123
  C      192.695    -563.633    -201.152
  N      192.145    -564.295    -200.114
  C      191.827    -563.159    -202.263
  C      192.448    -562.472    -203.229
  O      191.150    -562.689    -209.337
  O      190.746    -564.298    -207.400
  H      196.156    -563.521    -204.112
  H      191.145    -564.900    -208.061
  H      190.767    -563.374    -202.262
  H      191.904    -562.092    -204.086
  H      195.333    -560.978    -203.838
  H      194.248    -563.278    -205.585
  H      195.186    -562.104    -207.492
  H      194.253    -559.619    -206.643
  H      192.776    -564.628    -199.380
  H      191.912    -560.340    -206.966
  H      191.180    -564.591    -200.090
  H      192.968    -560.872    -208.274
  P      197.457    -560.648    -207.514
  C      197.670    -558.106    -207.303
  O      198.332    -559.341    -207.186
  O      196.962    -560.720    -208.908
  O      198.460    -561.862    -207.199
  H      199.017    -562.034    -207.982
  H      198.272    -557.310    -206.858
  H      196.692    -558.130    -206.797
  H      197.509    -557.875    -208.371
  H      187.746    -561.440    -207.412
  H      188.121    -563.030    -208.032
  H      188.583    -561.608    -208.937

 3  4  5  6  7  8  9  10  11  12  13  23  27  28  29  30  32 0
 6-311+G(2d,p)
 ****
 34  35 0
 6-311+G(2d,p)
 ****
 1  2  14  15  16  17  18  19  20  21  22  24  25  26 0
 3-21G
 ****
 31  33  36  37  38  39  40  41  42  43  44  45  46 0
 3-21G
 ****


