%nproc=1
%NoSave
%Mem=1900MB
#P OB98/GEN NMR

erre ene a

0 1
  C      -61.092      -9.550    -163.255
  O      -61.804      -8.780    -164.226
  P      -63.313      -9.183    -164.586
  C      -64.615      -7.998    -162.701
  O      -64.293      -8.010    -164.085
  C      -65.436      -6.752    -162.343
  O      -64.597      -5.560    -162.371
  C      -66.594      -6.509    -163.323
  O      -67.714      -5.918    -162.642
  C      -66.025      -5.468    -164.266
  O      -67.055      -4.755    -164.950
  C      -65.195      -4.629    -163.297
  N      -63.977      -0.006    -165.141
  C      -65.056      -0.446    -164.457
  N      -65.302      -1.685    -163.979
  C      -64.279      -2.513    -164.255
  C      -63.108      -2.206    -164.936
  C      -62.975      -0.884    -165.396
  N      -61.888      -0.447    -166.118
  N      -62.292      -3.314    -165.032
  C      -62.980      -4.285    -164.464
  N      -64.170      -3.843    -163.951
  O      -63.728     -10.561    -164.190
  O      -63.358      -9.007    -166.181
  H      -66.627      -4.066    -165.490
  H      -63.857      -9.751    -166.569
  H      -65.830       0.297    -164.275
  H      -62.671      -5.320    -164.410
  H      -65.821      -3.941    -162.716
  H      -65.388      -5.954    -165.016
  H      -66.937      -7.403    -163.852
  H      -65.812      -6.855    -161.317
  H      -63.698      -8.022    -162.109
  H      -61.933       0.485    -166.508
  H      -61.210      -1.122    -166.441
  H      -65.157      -8.918    -162.450
  P      -68.910      -6.923    -162.243
  C      -68.306      -7.449    -159.754
  O      -69.121      -6.747    -160.666
  O      -68.699      -8.320    -162.731
  O      -70.180      -6.200    -162.898
  H      -70.267      -5.257    -162.681
  H      -68.523      -7.096    -158.742
  H      -67.247      -7.278    -159.962
  H      -68.524      -8.522    -159.806
  H      -60.107      -9.150    -163.135
  H      -61.026     -10.566    -163.584
  H      -61.610      -9.511    -162.319

 3  4  5  6  7  8  9  10  11  12  22  25  29  30  31  32 0
 6-311+G(2d,p)
 ****
 33  36  37 0
 6-311+G(2d,p)
 ****
 1  2  13  14  15  16  17  18  19  20  21  23  24  26 0
 3-21G
 ****
 27  28  34  35  38  39  40  41  42  43  44  45  46  47  48 0
 3-21G
 ****


