%nproc=1
%NoSave
%Mem=1900MB
#P OB98/GEN NMR

erre ene a

0 1
  C      422.843     128.017     -99.377
  O      423.793     129.030     -99.632
  H      421.906     128.274     -99.883
  H      422.653     127.940     -98.304
  H      423.198     127.057     -99.763
  P      425.242     128.846     -98.973
  C      424.571     129.834     -96.669
  O      424.999     128.685     -97.391
  C      425.195     129.850     -95.276
  O      424.887     131.120     -94.635
  C      424.686     128.731     -94.352
  O      425.774     128.268     -93.547
  C      423.688     129.450     -93.464
  O      423.480     128.775     -92.228
  C      424.355     130.817     -93.333
  N      422.761     133.364     -89.293
  C      423.764     132.419     -89.416
  N      424.447     132.096     -88.300
  N      424.068     131.837     -90.551
  C      423.324     132.269     -91.595
  C      422.301     133.191     -91.598
  C      421.957     133.812     -90.334
  O      421.069     134.637     -90.157
  N      421.768     133.331     -92.857
  C      422.468     132.503     -93.612
  N      423.426     131.842     -92.891
  O      425.898     130.302     -99.099
  O      426.098     127.790     -99.586
  H      423.015     129.389     -91.622
  H      426.871     130.241     -99.185
  H      422.561     133.772     -88.396
  H      422.323     132.345     -94.674
  H      425.185     130.807     -92.613
  H      422.719     129.537     -93.977
  H      424.290     132.528     -87.400
  H      424.240     127.894     -94.890
  H      425.193     131.413     -88.369
  H      426.289     129.806     -95.379
  H      423.479     129.813     -96.583
  H      424.868     130.734     -97.220
  P      426.554     126.954     -94.040
  C      424.781     125.138     -93.498
  O      425.479     125.859     -94.506
  O      427.140     126.351     -92.676
  O      427.650     127.236     -95.016
  H      428.103     126.484     -92.642
  H      424.103     124.449     -93.957
  H      424.233     125.822     -92.885
  H      425.482     124.600     -92.894

 6  7  8  9  10  11  12  13  14  15  26  29  33  34 0
 6-311+G(2d,p)
 ****
 36  38  39  40  41 0
 6-311+G(2d,p)
 ****
 1  2  3  4  5  16  17  18  19  20  21  22  23  24  25 0
 3-21G
 ****
 27  28  30  31  32  35  37  42  43  44  45  46  47 0
 3-21G
 ****
 48  49 0
 3-21G
 ****


