%nproc=1
%NoSave
%Mem=1900MB
#P OB98/GEN NMR

erre ene a

0 1
  C      101.177     417.269     198.459
  O       99.989     417.808     199.017
  P      100.134     418.672     200.370
  C      100.322     416.706     202.064
  O       99.532     417.778     201.558
  C       99.632     416.023     203.250
  O      100.426     414.874     203.659
  C       99.469     416.928     204.488
  O       98.234     416.549     205.110
  C      100.667     416.518     205.340
  O      100.564     416.900     206.701
  C      100.688     415.024     205.073
  N      103.964     414.062     208.891
  C      102.737     414.643     208.880
  N      101.909     414.854     207.816
  C      102.472     414.388     206.686
  C      103.725     413.791     206.539
  C      104.482     413.626     207.712
  N      105.738     413.047     207.720
  N      103.954     413.469     205.219
  C      102.877     413.868     204.580
  N      101.949     414.404     205.415
  O       99.029     419.822     200.180
  O      101.495     419.242     200.617
  H       99.752     416.533     207.088
  H       99.342     420.674     200.519
  H      102.366     414.969     209.847
  H      102.725     413.802     203.508
  H       99.883     414.489     205.611
  H      101.573     416.999     204.943
  H       99.441     417.999     204.256
  H       98.661     415.655     202.925
  H      101.283     417.102     202.402
  H      106.277     413.163     208.564
  H      106.191     412.923     206.820
  H      100.523     415.988     201.261
  P       97.033     417.604     205.153
  C       98.082     418.642     207.267
  O       96.925     418.028     206.710
  O       95.765     416.635     204.997
  O       97.093     418.720     204.140
  H       95.799     415.901     205.631
  H       97.836     418.951     208.278
  H       98.373     419.509     206.677
  H       98.899     417.913     207.310
  H      100.938     416.723     197.571
  H      101.638     416.613     199.168
  H      101.851     418.065     198.218

 3  4  5  6  7  8  9  10  11  12  22  25  29  30  31  32 0
 6-311+G(2d,p)
 ****
 33  36  37 0
 6-311+G(2d,p)
 ****
 1  2  13  14  15  16  17  18  19  20  21  23  24  26 0
 3-21G
 ****
 27  28  34  35  38  39  40  41  42  43  44  45  46  47  48 0
 3-21G
 ****


