%nproc=1
%NoSave
%Mem=1900MB
#P OB98/GEN NMR

erre ene a

0 1
  C      230.619     172.421      -4.556
  O      231.358     173.106      -5.550
  H      229.641     172.158      -4.965
  H      230.477     173.061      -3.681
  H      231.142     171.505      -4.267
  P      232.792     173.681      -5.107
  C      231.558     175.814      -4.251
  O      232.431     174.737      -3.949
  C      231.118     176.505      -2.966
  O      230.454     175.571      -2.085
  C      232.259     177.094      -2.141
  O      232.751     178.320      -2.654
  C      231.550     177.282      -0.811
  O      230.670     178.420      -0.888
  C      230.752     175.962      -0.717
  N      231.483     174.898      -0.023
  C      231.182     174.711       1.331
  O      230.346     175.415       1.894
  N      231.866     173.745       2.032
  C      232.756     173.017       1.431
  N      233.402     172.080       2.177
  C      233.094     173.172       0.004
  C      232.429     174.118      -0.653
  O      233.203     174.628      -6.329
  O      233.819     172.665      -4.736
  H      230.227     178.488      -0.022
  H      234.010     175.150      -6.094
  H      233.854     172.550      -0.450
  H      232.623     174.291      -1.707
  H      229.793     176.120      -0.206
  H      232.232     177.463       0.021
  H      233.073     176.373      -2.009
  H      230.385     177.277      -3.235
  H      233.190     172.039       3.166
  H      230.685     175.411      -4.779
  H      234.209     171.572       1.842
  H      232.060     176.537      -4.898
  P      234.323     178.606      -2.495
  C      233.805     179.514      -0.110
  O      234.625     178.686      -0.924
  O      234.467     180.123      -2.977
  O      235.212     177.683      -3.271
  H      235.322     180.267      -3.430
  H      234.136     179.456       0.906
  H      232.790     179.183      -0.173
  H      233.872     180.526      -0.450

 6  7  8  9  10  11  12  13  14  15  16  26  30  31  32  33  35 0
 6-311+G(2d,p)
 ****
 37  38 0
 6-311+G(2d,p)
 ****
 1  2  3  4  5  17  18  19  20  21  22  23  24  25 0
 3-21G
 ****
 27  28  29  34  36  39  40  41  42  43  44  45  46 0
 3-21G
 ****


