%nproc=1
%NoSave
%Mem=1900MB
#P OB98/GEN NMR

erre ene a

0 1
  C      301.383     -79.797     -91.993
  O      301.970     -80.426     -90.853
  P      303.569     -80.326     -90.732
  C      303.862     -78.222     -89.238
  O      303.917     -79.641     -89.323
  C      304.765     -77.715     -88.114
  O      305.269     -76.389     -88.371
  C      304.068     -77.643     -86.762
  O      304.013     -78.931     -86.175
  C      304.968     -76.675     -86.002
  O      306.098     -77.357     -85.423
  C      305.429     -75.705     -87.102
  N      305.072     -71.076     -85.064
  C      305.827     -72.165     -84.667
  N      306.616     -71.985     -83.585
  N      305.807     -73.321     -85.274
  C      304.974     -73.357     -86.341
  C      304.198     -72.338     -86.849
  C      304.226     -71.062     -86.163
  O      303.595     -70.065     -86.490
  N      303.529     -72.734     -87.979
  C      303.806     -74.022     -88.076
  N      304.728     -74.434     -87.146
  O      303.950     -79.209     -91.812
  O      304.268     -81.617     -91.006
  H      306.623     -76.718     -84.904
  H      304.416     -79.620     -92.565
  H      305.118     -70.209     -84.553
  H      303.390     -74.689     -88.815
  H      306.495     -75.462     -86.999
  H      304.440     -76.198     -85.172
  H      306.681     -71.120     -83.071
  H      303.066     -77.213     -86.876
  H      307.183     -72.767     -83.283
  H      305.627     -78.397     -88.050
  H      302.835     -77.899     -89.061
  H      304.163     -77.802     -90.203
  P      302.568     -79.577     -85.924
  C      301.250     -80.780     -87.812
  O      302.388     -80.775     -86.971
  O      301.566     -78.445     -86.460
  O      302.280     -79.920     -84.500
  H      300.830     -78.337     -85.829
  H      301.506     -81.279     -88.750
  H      300.905     -79.765     -88.034
  H      300.444     -81.335     -87.323
  H      300.321     -79.929     -91.966
  H      301.775     -80.239     -92.885
  H      301.613     -78.752     -91.982

 3  4  5  6  7  8  9  10  11  12  23  26  30  31 0
 6-311+G(2d,p)
 ****
 33  35  36  37  38 0
 6-311+G(2d,p)
 ****
 1  2  13  14  15  16  17  18  19  20  21  22  24  25 0
 3-21G
 ****
 27  28  29  32  34  39  40  41  42  43  44  45  46  47  48  49 0
 3-21G
 ****


