%nproc=1
%NoSave
%Mem=1900MB
#P OB98/GEN NMR

erre ene a

0 1
  C      -17.305      44.829      14.185
  O      -18.215      44.344      15.159
  P      -18.460      45.151      16.522
  C      -16.799      43.521      17.614
  O      -17.176      44.883      17.448
  C      -15.589      43.407      18.538
  O      -14.475      44.109      17.938
  C      -15.821      44.010      19.918
  O      -15.132      43.220      20.890
  C      -15.151      45.372      19.850
  O      -14.747      45.819      21.155
  C      -14.002      45.095      18.876
  N      -12.698      50.048      19.204
  C      -13.022      49.141      20.150
  N      -13.384      47.850      19.991
  C      -13.336      47.504      18.694
  C      -13.018      48.318      17.617
  C      -12.690      49.653      17.910
  N      -12.348      50.573      16.943
  N      -13.108      47.616      16.431
  C      -13.451      46.399      16.790
  N      -13.590      46.278      18.147
  O      -19.768      44.888      17.184
  O      -18.297      46.687      16.115
  H      -14.491      46.761      21.070
  H      -18.945      47.237      16.596
  H      -12.992      49.502      21.175
  H      -13.622      45.576      16.111
  H      -13.127      44.682      19.391
  H      -15.855      46.107      19.445
  H      -16.882      44.082      20.179
  H      -15.307      42.350      18.617
  H      -16.540      43.114      16.632
  H      -12.010      51.469      17.257
  H      -12.173      50.237      16.006
  H      -17.646      42.954      18.012
  P      -15.821      43.135      22.344
  C      -13.946      44.762      23.127
  O      -15.320      44.450      23.108
  O      -15.569      41.822      23.008
  O      -17.354      43.419      21.978
  H      -17.436      43.932      21.145
  H      -13.799      45.665      23.725
  H      -13.588      44.956      22.113
  H      -13.373      43.944      23.574
  H      -17.280      44.156      13.353
  H      -16.328      44.901      14.615
  H      -17.620      45.796      13.852

 3  4  5  6  7  8  9  10  11  12  22  25  29  30  31  32 0
 6-311+G(2d,p)
 ****
 33  36  37 0
 6-311+G(2d,p)
 ****
 1  2  13  14  15  16  17  18  19  20  21  23  24  26 0
 3-21G
 ****
 27  28  34  35  38  39  40  41  42  43  44  45  46  47  48 0
 3-21G
 ****


