%nproc=1
%NoSave
%Mem=1900MB
#P OB98/GEN NMR

erre ene a

0 1
  C      135.859     560.079    1068.838
  O      134.573     559.949    1069.437
  P      134.095     558.529    1070.001
  C      132.884     557.637    1067.930
  O      132.740     558.142    1069.238
  C      131.749     556.677    1067.590
  O      131.862     555.452    1068.364
  C      130.363     557.246    1067.909
  O      129.938     558.176    1066.930
  C      129.521     555.961    1067.955
  O      129.143     555.548    1066.606
  C      130.498     554.966    1068.568
  N      127.272     552.996    1072.000
  C      127.150     553.202    1070.662
  N      128.047     553.762    1069.825
  C      129.134     554.161    1070.502
  C      129.406     554.056    1071.859
  C      128.389     553.408    1072.622
  N      128.520     553.144    1073.976
  N      130.605     554.607    1072.188
  C      131.107     555.055    1071.022
  N      130.275     554.744    1069.985
  O      134.058     558.406    1071.499
  O      135.170     557.488    1069.397
  H      128.937     554.610    1066.647
  H      135.633     557.042    1070.122
  H      126.229     552.853    1070.204
  H      132.047     555.563    1070.930
  H      130.458     553.980    1068.063
  H      128.588     556.086    1068.518
  H      130.356     557.710    1068.900
  H      131.816     556.395    1066.523
  H      133.834     557.105    1067.856
  H      127.809     552.557    1074.387
  H      129.443     553.166    1074.376
  H      132.907     558.464    1067.212
  P      130.180     559.747    1067.165
  C      128.625     560.034    1069.191
  O      128.838     560.323    1067.811
  O      130.683     560.524    1065.985
  O      131.212     559.793    1068.397
  H      131.772     560.584    1068.300
  H      128.261     558.990    1069.286
  H      127.872     560.699    1069.577
  H      129.539     560.151    1069.757
  H      136.005     561.091    1068.522
  H      135.926     559.428    1067.992
  H      136.613     559.816    1069.551

 3  4  5  6  7  8  9  10  11  12  22  25  29  30  31  32 0
 6-311+G(2d,p)
 ****
 33  36  37 0
 6-311+G(2d,p)
 ****
 1  2  13  14  15  16  17  18  19  20  21  23  24  26 0
 3-21G
 ****
 27  28  34  35  38  39  40  41  42  43  44  45  46  47  48 0
 3-21G
 ****


