%nproc=1
%NoSave
%Mem=1900MB
#P OB98/GEN NMR

erre ene a

0 1
  C       73.436     333.423     171.284
  O       72.931     332.605     170.219
  P       73.412     331.087     170.007
  C       75.551     329.824     169.321
  O       74.977     331.089     169.639
  C       77.061     329.935     169.064
  O       77.317     330.600     167.809
  C       77.826     330.727     170.121
  O       78.051     329.930     171.272
  C       79.086     331.112     169.350
  O       80.019     330.021     169.332
  C       78.528     331.367     167.943
  N       80.673     335.854     166.750
  C       81.194     334.617     166.910
  N       80.560     333.471     167.234
  C       79.237     333.685     167.371
  C       78.562     334.892     167.240
  C       79.337     336.019     166.917
  N       78.806     337.279     166.766
  N       77.215     334.725     167.477
  C       77.075     333.437     167.729
  N       78.268     332.770     167.673
  O       72.565     330.300     169.060
  O       73.377     330.442     171.473
  H       80.392     329.940     170.228
  H       73.218     329.481     171.404
  H       82.268     334.540     166.764
  H       76.133     332.944     167.951
  H       79.213     331.005     167.167
  H       79.599     331.975     169.784
  H       77.270     331.631     170.390
  H       77.462     328.918     168.985
  H       75.055     329.433     168.426
  H       79.436     338.040     166.566
  H       77.820     337.417     166.935
  H       75.367     329.138     170.158
  P       77.495     330.404     172.698
  C       78.472     331.526     174.790
  O       78.677     331.210     173.424
  O       76.849     329.344     173.523
  O       76.452     331.568     172.331
  H       75.754     331.598     173.008
  H       77.828     332.406     174.870
  H       79.441     331.757     175.244
  H       78.023     330.684     175.320
  H       72.982     334.391     171.236
  H       74.497     333.521     171.186
  H       73.205     332.967     172.224

 3  4  5  6  7  8  9  10  11  12  22  25  29  30  31  32 0
 6-311+G(2d,p)
 ****
 33  36  37 0
 6-311+G(2d,p)
 ****
 1  2  13  14  15  16  17  18  19  20  21  23  24  26 0
 3-21G
 ****
 27  28  34  35  38  39  40  41  42  43  44  45  46  47  48 0
 3-21G
 ****


