%nproc=1
%NoSave
%Mem=1900MB
#P OB98/GEN NMR

erre ene a

0 1
  C     -561.489    -650.625    -155.089
  O     -561.723    -651.552    -156.128
  H     -562.373    -649.997    -154.969
  H     -560.639    -649.988    -155.351
  H     -561.289    -651.139    -154.144
  P     -560.689    -652.766    -156.271
  C     -562.006    -654.940    -155.761
  O     -561.528    -654.048    -156.758
  C     -563.366    -654.481    -155.243
  O     -564.299    -654.430    -156.351
  C     -563.967    -655.397    -154.167
  O     -564.624    -654.600    -153.185
  C     -564.992    -656.214    -154.939
  O     -566.037    -656.707    -154.101
  C     -565.455    -655.203    -155.984
  N     -569.755    -656.111    -158.453
  C     -569.510    -655.321    -157.347
  N     -570.570    -654.675    -156.819
  N     -568.325    -655.172    -156.812
  C     -567.353    -655.847    -157.471
  C     -567.465    -656.669    -158.570
  C     -568.786    -656.847    -159.136
  O     -569.070    -657.553    -160.098
  N     -566.250    -657.200    -158.922
  C     -565.402    -656.699    -158.037
  N     -566.023    -655.868    -157.142
  O     -560.322    -653.116    -154.752
  O     -559.466    -652.474    -157.073
  H     -566.505    -655.929    -153.728
  H     -559.375    -652.938    -154.591
  H     -570.686    -656.208    -158.817
  H     -564.345    -656.909    -157.997
  H     -566.217    -654.524    -155.593
  H     -564.503    -657.076    -155.408
  H     -571.495    -654.706    -157.206
  H     -563.220    -656.034    -153.684
  H     -570.407    -654.057    -156.032
  H     -563.265    -653.456    -154.864
  H     -561.290    -654.966    -154.934
  H     -562.093    -655.946    -156.191
  P     -563.703    -653.946    -152.046
  C     -565.084    -651.766    -151.827
  O     -564.609    -652.939    -151.182
  O     -562.737    -652.972    -152.870
  O     -562.922    -654.942    -151.252
  H     -561.833    -653.343    -152.895
  H     -565.669    -651.192    -151.139
  H     -565.688    -652.040    -152.666
  H     -564.253    -651.182    -152.162

 6  7  8  9  10  11  12  13  14  15  26  29  33  34 0
 6-311+G(2d,p)
 ****
 36  38  39  40  41 0
 6-311+G(2d,p)
 ****
 1  2  3  4  5  16  17  18  19  20  21  22  23  24  25 0
 3-21G
 ****
 27  28  30  31  32  35  37  42  43  44  45  46  47 0
 3-21G
 ****
 48  49 0
 3-21G
 ****


