%nproc=1
%NoSave
%Mem=1900MB
#P OB98/GEN NMR

erre ene a

0 1
  C      165.786     433.671    1491.820
  O      164.702     433.248    1492.636
  H      166.718     433.548    1492.391
  H      165.676     434.724    1491.560
  H      165.847     433.054    1490.924
  P      163.242     433.177    1491.995
  C      162.789     435.700    1491.663
  O      162.481     434.525    1492.409
  C      161.612     436.664    1491.702
  O      160.433     436.047    1491.104
  C      161.180     437.068    1493.119
  O      162.072     438.028    1493.671
  C      159.782     437.581    1492.862
  O      159.806     438.934    1492.366
  C      159.275     436.598    1491.779
  N      158.428     435.533    1492.320
  C      157.178     435.932    1492.832
  O      156.831     437.117    1492.892
  N      156.396     434.937    1493.337
  C      156.762     433.617    1493.461
  O      156.061     432.781    1493.999
  C      158.084     433.267    1492.927
  C      158.842     434.220    1492.378
  O      162.482     431.917    1492.248
  O      163.510     433.387    1490.426
  H      160.267     439.463    1493.051
  H      163.419     432.530    1489.957
  H      155.507     435.198    1493.721
  H      158.404     432.225    1492.998
  H      159.827     433.974    1491.992
  H      158.698     437.140    1491.016
  H      159.165     437.583    1493.774
  H      161.128     436.183    1493.766
  H      161.865     437.569    1491.106
  H      162.987     435.414    1490.623
  H      163.684     436.161    1492.089
  P      162.656     437.816    1495.155
  C      160.359     437.857    1496.281
  O      161.620     438.480    1496.172
  O      164.090     438.202    1495.341
  O      162.467     436.242    1495.417
  H      163.338     435.837    1495.574
  H      159.758     438.390    1496.988
  H      160.487     436.847    1496.612
  H      159.875     437.861    1495.326

 6  7  8  9  10  11  12  13  14  15  16  26  31  32  33  34  35 0
 6-311+G(2d,p)
 ****
 36  37 0
 6-311+G(2d,p)
 ****
 1  2  3  4  5  17  18  19  20  21  22  23  24  25 0
 3-21G
 ****
 27  28  29  30  38  39  40  41  42  43  44  45 0
 3-21G
 ****


