%nproc=1
%NoSave
%Mem=1900MB
#P OB98/GEN NMR

erre ene a

0 1
  C      417.496     115.307     -35.933
  O      417.881     116.251     -36.911
  H      418.218     115.340     -35.112
  H      417.503     114.301     -36.360
  H      416.505     115.538     -35.536
  P      416.891     116.536     -38.140
  C      417.898     114.771     -39.735
  O      416.771     115.169     -38.966
  C      417.648     113.413     -40.403
  O      417.635     112.382     -39.366
  C      416.303     113.313     -41.154
  O      416.497     112.386     -42.237
  C      415.414     112.725     -40.073
  O      414.181     112.274     -40.574
  C      416.379     111.678     -39.494
  N      415.982     111.098     -38.220
  C      415.050     110.063     -38.242
  O      414.539     109.604     -39.263
  N      414.698     109.554     -37.021
  C      415.186     109.958     -35.809
  O      414.852     109.440     -34.749
  C      416.160     111.058     -35.849
  C      416.512     111.566     -37.032
  O      417.206     117.744     -38.959
  O      415.452     116.655     -37.445
  H      415.204     117.596     -37.366
  H      414.324     111.438     -41.071
  H      414.029     108.802     -37.019
  H      416.558     111.407     -34.907
  H      417.238     112.373     -37.098
  H      416.538     110.877     -40.222
  H      415.176     113.489     -39.332
  H      415.964     114.269     -41.553
  H      418.490     113.184     -41.066
  H      418.764     114.703     -39.069
  H      418.095     115.532     -40.499
  P      417.074     112.812     -43.673
  C      415.673     111.558     -45.456
  O      415.865     112.769     -44.729
  O      418.272     112.029     -44.099
  O      417.417     114.372     -43.544
  H      418.124     114.603     -44.177
  H      414.840     111.668     -46.119
  H      415.481     110.758     -44.772
  H      416.554     111.339     -46.023

 6  7  8  9  10  11  12  13  14  15  16  27  31  32  33  34  35 0
 6-311+G(2d,p)
 ****
 36  37 0
 6-311+G(2d,p)
 ****
 1  2  3  4  5  17  18  19  20  21  22  23  24  25 0
 3-21G
 ****
 26  28  29  30  38  39  40  41  42  43  44  45 0
 3-21G
 ****


