%nproc=1
%NoSave
%Mem=1900MB
#P OB98/GEN NMR

erre ene a

0 1
  C      145.944      65.409    -515.431
  O      146.317      66.044    -514.212
  P      146.694      65.053    -512.997
  C      145.463      63.250    -511.594
  O      145.345      64.310    -512.543
  C      144.159      62.446    -511.521
  O      143.128      63.191    -510.799
  C      143.565      62.081    -512.901
  O      142.962      60.793    -512.776
  C      142.507      63.158    -513.080
  O      141.566      62.847    -514.107
  C      141.959      63.229    -511.658
  N      137.592      65.643    -512.784
  C      138.128      64.475    -513.216
  N      139.298      63.913    -512.872
  C      139.948      64.665    -511.977
  C      139.551      65.888    -511.449
  C      138.310      66.380    -511.882
  N      137.775      67.579    -511.472
  N      140.503      66.373    -510.563
  C      141.494      65.494    -510.619
  N      141.168      64.416    -511.404
  O      147.017      66.056    -511.783
  O      147.835      64.144    -513.307
  H      140.916      63.571    -514.182
  H      147.990      66.174    -511.694
  H      137.536      63.928    -513.951
  H      142.452      65.605    -510.146
  H      141.332      62.365    -511.406
  H      142.994      64.103    -513.360
  H      144.314      62.051    -513.714
  H      144.353      61.514    -510.947
  H      145.693      63.655    -510.593
  H      136.880      67.854    -511.848
  H      138.272      68.155    -510.807
  H      146.311      62.603    -511.885
  P      143.499      59.588    -513.691
  C      143.043      58.843    -516.118
  O      142.798      59.836    -515.133
  O      142.631      58.366    -513.136
  O      144.986      59.343    -513.665
  H      141.682      58.600    -513.085
  H      142.468      59.084    -517.002
  H      142.749      57.851    -515.740
  H      144.111      58.849    -516.395
  H      145.716      66.153    -516.165
  H      145.083      64.796    -515.265
  H      146.753      64.801    -515.779

 3  4  5  6  7  8  9  10  11  12  22  25  29  30  31  32 0
 6-311+G(2d,p)
 ****
 33  36  37 0
 6-311+G(2d,p)
 ****
 1  2  13  14  15  16  17  18  19  20  21  23  24  26 0
 3-21G
 ****
 27  28  34  35  38  39  40  41  42  43  44  45  46  47  48 0
 3-21G
 ****


