%nproc=1
%NoSave
%Mem=1900MB
#P OB98/GEN NMR

erre ene a

0 1
  C     -221.044     105.693     -41.385
  O     -219.981     105.328     -40.502
  P     -219.736     106.275     -39.230
  C     -221.472     105.050     -37.737
  O     -221.069     106.274     -38.341
  C     -221.657     105.248     -36.230
  O     -222.588     106.314     -35.943
  C     -222.222     104.019     -35.528
  O     -221.232     103.016     -35.380
  C     -222.697     104.636     -34.216
  O     -221.594     104.827     -33.315
  C     -223.228     106.005     -34.680
  N     -227.526     108.564     -33.589
  C     -226.232     108.789     -33.267
  N     -225.147     108.059     -33.594
  C     -225.494     107.001     -34.344
  C     -226.768     106.644     -34.757
  C     -227.820     107.479     -34.341
  N     -229.137     107.240     -34.661
  N     -226.731     105.490     -35.513
  C     -225.458     105.143     -35.536
  N     -224.672     106.030     -34.854
  O     -219.706     107.744     -39.867
  O     -218.477     105.970     -38.488
  H     -220.962     105.435     -33.752
  H     -218.797     108.095     -39.852
  H     -226.045     109.674     -32.664
  H     -225.063     104.266     -36.031
  H     -222.973     106.807     -33.979
  H     -223.440     104.021     -33.697
  H     -223.079     103.618     -36.087
  H     -220.683     105.510     -35.798
  H     -220.726     104.274     -37.918
  H     -229.839     107.844     -34.260
  H     -229.378     106.386     -35.146
  H     -222.401     104.714     -38.205
  P     -221.722     101.496     -35.259
  C     -221.919     101.271     -37.812
  O     -222.615     101.279     -36.580
  O     -222.825     101.603     -34.109
  O     -220.640     100.497     -35.043
  H     -223.417     102.364     -34.243
  H     -222.636     101.083     -38.618
  H     -221.164     100.483     -37.816
  H     -221.447     102.245     -37.979
  H     -221.101     104.986     -42.186
  H     -220.858     106.668     -41.783
  H     -221.969     105.698     -40.847

 3  4  5  6  7  8  9  10  11  12  22  25  29  30  31  32 0
 6-311+G(2d,p)
 ****
 33  36  37 0
 6-311+G(2d,p)
 ****
 1  2  13  14  15  16  17  18  19  20  21  23  24  26 0
 3-21G
 ****
 27  28  34  35  38  39  40  41  42  43  44  45  46  47  48 0
 3-21G
 ****


