%nproc=1
%NoSave
%Mem=1900MB
#P OB98/GEN NMR

erre ene a

0 1
  C      -58.327    -130.325    -259.058
  O      -59.369    -129.424    -258.748
  H      -58.118    -130.271    -260.131
  H      -58.627    -131.346    -258.810
  H      -57.417    -130.064    -258.510
  P      -59.756    -129.260    -257.202
  C      -62.217    -130.106    -257.088
  O      -60.841    -130.402    -256.884
  C      -63.079    -131.215    -256.476
  O      -62.842    -132.446    -257.213
  C      -62.754    -131.494    -254.998
  O      -63.966    -131.813    -254.309
  C      -61.859    -132.718    -255.068
  O      -61.848    -133.482    -253.869
  C      -62.473    -133.465    -256.257
  N      -61.552    -134.425    -256.854
  C      -61.243    -135.567    -256.118
  O      -61.746    -135.857    -255.032
  N      -60.299    -136.397    -256.675
  C      -59.641    -136.193    -257.854
  O      -58.790    -136.958    -258.292
  C      -60.004    -134.967    -258.584
  C      -60.927    -134.152    -258.057
  O      -60.626    -127.912    -257.176
  O      -58.610    -129.221    -256.250
  H      -60.050    -127.141    -257.025
  H      -62.740    -133.869    -253.748
  H      -60.066    -137.228    -256.154
  H      -59.498    -134.765    -259.518
  H      -61.204    -133.234    -258.565
  H      -63.396    -133.976    -255.954
  H      -60.829    -132.420    -255.288
  H      -62.259    -130.653    -254.510
  H      -64.137    -130.958    -256.605
  H      -62.415    -130.047    -258.162
  H      -62.452    -129.144    -256.624
  P      -64.858    -130.583    -253.771
  C      -63.304    -130.628    -251.665
  O      -63.962    -129.853    -252.653
  O      -65.982    -131.352    -252.940
  O      -65.358    -129.705    -254.870
  H      -65.657    -132.137    -252.471
  H      -62.758    -129.982    -251.010
  H      -62.628    -131.310    -252.138
  H      -64.029    -131.178    -251.102

 6  7  8  9  10  11  12  13  14  15  16  27  31  32  33  34  35 0
 6-311+G(2d,p)
 ****
 36  37 0
 6-311+G(2d,p)
 ****
 1  2  3  4  5  17  18  19  20  21  22  23  24  25 0
 3-21G
 ****
 26  28  29  30  38  39  40  41  42  43  44  45 0
 3-21G
 ****


