%nproc=1
%NoSave
%Mem=1900MB
#P OB98/GEN NMR

erre ene a

0 1
  C     -536.214    -427.745      76.560
  O     -535.773    -428.825      77.366
  H     -535.352    -427.290      76.077
  H     -536.704    -426.995      77.192
  H     -536.906    -428.098      75.788
  P     -536.895    -429.839      77.904
  C     -534.965    -431.566      78.116
  O     -536.117    -430.988      78.714
  C     -534.503    -432.779      78.925
  O     -533.907    -432.363      80.164
  C     -535.617    -433.759      79.278
  O     -535.892    -434.661      78.216
  C     -534.990    -434.480      80.462
  O     -534.021    -435.446      79.981
  C     -534.264    -433.332      81.189
  N     -536.847    -433.955      85.512
  C     -536.220    -434.893      84.714
  N     -536.297    -436.179      85.124
  N     -535.574    -434.596      83.611
  C     -535.602    -433.271      83.314
  C     -536.201    -432.249      84.026
  C     -536.891    -432.591      85.246
  O     -537.459    -431.797      85.999
  N     -536.016    -431.038      83.412
  C     -535.330    -431.330      82.324
  N     -535.057    -432.677      82.218
  O     -537.377    -430.577      76.565
  O     -538.043    -429.198      78.616
  H     -533.537    -435.774      80.756
  H     -538.230    -430.193      76.285
  H     -537.342    -434.233      86.347
  H     -535.000    -430.609      81.591
  H     -533.329    -433.668      81.669
  H     -535.717    -435.031      81.059
  H     -536.795    -436.477      85.953
  H     -536.529    -433.232      79.615
  H     -535.840    -436.883      84.554
  H     -533.716    -433.287      78.340
  H     -534.164    -430.821      78.088
  H     -535.211    -431.868      77.092
  P     -537.327    -434.579      77.502
  C     -537.230    -435.709      75.166
  O     -537.454    -435.877      76.557
  O     -537.133    -433.379      76.459
  O     -538.480    -434.331      78.414
  H     -537.671    -432.607      76.728
  H     -537.348    -436.650      74.670
  H     -536.237    -435.343      75.006
  H     -537.936    -435.007      74.773

 6  7  8  9  10  11  12  13  14  15  26  29  33  34 0
 6-311+G(2d,p)
 ****
 36  38  39  40  41 0
 6-311+G(2d,p)
 ****
 1  2  3  4  5  16  17  18  19  20  21  22  23  24  25 0
 3-21G
 ****
 27  28  30  31  32  35  37  42  43  44  45  46  47 0
 3-21G
 ****
 48  49 0
 3-21G
 ****


