%nproc=1
%NoSave
%Mem=1900MB
#P OB98/GEN NMR

erre ene a

0 1
  C     -238.755     240.191    -229.534
  O     -237.353     240.072    -229.380
  H     -239.220     240.119    -228.548
  H     -239.138     239.387    -230.167
  H     -239.001     241.163    -229.970
  P     -236.477     240.116    -230.722
  C     -235.051     242.092    -229.849
  O     -235.981     241.640    -230.825
  C     -234.892     243.610    -229.929
  O     -236.073     244.259    -229.429
  C     -233.728     244.162    -229.116
  O     -232.517     244.058    -229.853
  C     -234.151     245.613    -228.949
  O     -233.828     246.355    -230.143
  C     -235.680     245.507    -228.799
  N     -237.640     248.393    -225.032
  C     -237.089     248.720    -226.222
  N     -236.535     247.908    -227.145
  C     -236.601     246.627    -226.753
  C     -237.135     246.139    -225.570
  C     -237.677     247.083    -224.683
  N     -238.237     246.745    -223.470
  N     -237.022     244.766    -225.507
  C     -236.486     244.424    -226.663
  N     -236.178     245.516    -227.436
  O     -237.130     239.554    -231.942
  O     -235.151     239.352    -230.247
  H     -232.857     246.461    -230.154
  H     -234.907     239.620    -229.343
  H     -237.085     249.785    -226.458
  H     -236.319     243.408    -226.996
  H     -236.196     246.318    -229.325
  H     -233.642     246.106    -228.123
  H     -233.655     243.691    -228.130
  H     -234.795     243.882    -230.986
  H     -234.076     241.610    -230.004
  H     -238.426     247.495    -222.824
  H     -238.148     245.789    -223.161
  H     -235.431     241.798    -228.866
  P     -231.573     242.765    -229.718
  C     -231.670     242.592    -232.281
  O     -231.849     241.910    -231.043
  O     -231.710     242.030    -228.426
  O     -230.096     243.330    -229.959
  H     -229.437     242.683    -229.639
  H     -231.881     241.924    -233.090
  H     -230.659     242.935    -232.356
  H     -232.335     243.429    -232.326

 6  7  8  9  10  11  12  13  14  15  25  28  32  33  34  35 0
 6-311+G(2d,p)
 ****
 36  39  40 0
 6-311+G(2d,p)
 ****
 1  2  3  4  5  16  17  18  19  20  21  22  23  24 0
 3-21G
 ****
 26  27  29  30  31  37  38  41  42  43  44  45  46  47 0
 3-21G
 ****
 48 0
 3-21G
 ****


