%nproc=1
%NoSave
%Mem=1900MB
#P OB98/GEN NMR

erre ene a

0 1
  C      -15.789    -150.254    -237.196
  O      -15.803    -150.665    -235.846
  H      -14.751    -150.129    -237.513
  H      -16.308    -149.298    -237.303
  H      -16.262    -151.010    -237.829
  P      -17.241    -150.934    -235.176
  C      -18.703    -149.548    -233.525
  O      -17.410    -149.772    -234.078
  C      -18.598    -148.739    -232.232
  O      -17.869    -149.512    -231.246
  C      -17.875    -147.403    -232.406
  O      -18.575    -146.390    -231.683
  C      -16.502    -147.641    -231.805
  O      -15.903    -146.437    -231.331
  C      -16.803    -148.694    -230.730
  N      -15.624    -149.495    -230.409
  C      -14.960    -149.198    -229.214
  O      -15.371    -148.283    -228.492
  N      -13.829    -149.895    -228.889
  C      -13.357    -150.777    -229.717
  N      -12.216    -151.419    -229.349
  C      -13.993    -151.091    -231.013
  C      -15.112    -150.427    -231.286
  O      -16.988    -152.248    -234.303
  O      -18.377    -151.052    -236.136
  H      -15.074    -146.675    -230.856
  H      -17.838    -152.652    -234.004
  H      -13.551    -151.823    -231.675
  H      -15.649    -150.591    -232.217
  H      -17.161    -148.215    -229.808
  H      -15.840    -148.068    -232.569
  H      -17.793    -147.097    -233.449
  H      -19.609    -148.597    -231.829
  H      -11.803    -151.171    -228.461
  H      -19.173    -150.516    -233.322
  H      -11.745    -152.102    -229.927
  H      -19.311    -148.999    -234.253
  P      -19.058    -145.119    -232.545
  C      -17.984    -142.870    -233.260
  O      -17.768    -144.201    -232.813
  O      -19.925    -144.273    -231.501
  O      -19.831    -145.487    -233.768
  H      -20.879    -144.437    -231.640
  H      -17.042    -142.382    -233.395
  H      -18.560    -142.338    -232.532
  H      -18.513    -142.887    -234.190

 6  7  8  9  10  11  12  13  14  15  16  26  30  31  32  33  35 0
 6-311+G(2d,p)
 ****
 37  38 0
 6-311+G(2d,p)
 ****
 1  2  3  4  5  17  18  19  20  21  22  23  24  25 0
 3-21G
 ****
 27  28  29  34  36  39  40  41  42  43  44  45  46 0
 3-21G
 ****


