%nproc=1
%NoSave
%Mem=1900MB
#P OB98/GEN NMR

erre ene a

0 1
  C      -82.122      53.287    -332.139
  O      -81.675      51.982    -331.839
  H      -82.419      53.776    -331.208
  H      -82.988      53.251    -332.805
  H      -81.322      53.873    -332.598
  P      -81.180      51.046    -333.046
  C      -78.778      51.772    -332.402
  O      -79.737      51.642    -333.438
  C      -77.470      51.096    -332.805
  O      -77.663      49.685    -333.048
  C      -76.847      51.622    -334.092
  O      -76.246      52.898    -333.958
  C      -75.828      50.529    -334.356
  O      -74.709      50.686    -333.466
  C      -76.652      49.267    -334.009
  N      -77.277      48.662    -335.183
  C      -76.414      48.130    -336.148
  O      -75.194      48.190    -336.002
  N      -76.952      47.571    -337.283
  C      -78.239      47.565    -337.448
  N      -78.718      47.004    -338.595
  C      -79.183      48.131    -336.467
  C      -78.643      48.655    -335.371
  O      -82.137      50.882    -334.183
  O      -80.778      49.666    -332.346
  H      -73.986      50.137    -333.821
  H      -80.473      49.046    -333.051
  H      -80.245      48.127    -336.667
  H      -79.271      49.095    -334.604
  H      -76.025      48.515    -333.514
  H      -75.434      50.543    -335.374
  H      -77.578      51.620    -334.911
  H      -76.779      51.183    -331.957
  H      -78.047      46.625    -339.248
  H      -79.191      51.318    -331.495
  H      -79.698      47.023    -338.840
  H      -78.574      52.829    -332.209
  P      -76.012      53.740    -335.307
  C      -78.331      54.891    -334.956
  O      -77.464      54.175    -335.822
  O      -75.543      52.625    -336.351
  O      -75.037      54.869    -335.192
  H      -74.571      52.622    -336.441
  H      -79.251      55.097    -335.462
  H      -77.868      55.812    -334.670
  H      -78.528      54.304    -334.083

 6  7  8  9  10  11  12  13  14  15  16  26  30  31  32  33  35 0
 6-311+G(2d,p)
 ****
 37  38 0
 6-311+G(2d,p)
 ****
 1  2  3  4  5  17  18  19  20  21  22  23  24  25 0
 3-21G
 ****
 27  28  29  34  36  39  40  41  42  43  44  45  46 0
 3-21G
 ****


