%nproc=1
%NoSave
%Mem=1900MB
#P OB98/GEN NMR

erre ene a

0 1
  C       75.632     -34.085     187.639
  O       76.554     -33.410     188.468
  H       74.724     -34.283     188.214
  H       76.051     -35.040     187.310
  H       75.369     -33.475     186.771
  P       77.902     -32.838     187.819
  C       79.501     -33.495     189.737
  O       78.867     -32.437     189.034
  C       79.518     -33.214     191.244
  O       78.152     -33.320     191.751
  C       80.380     -34.195     192.062
  O       80.871     -33.475     193.201
  C       79.339     -35.225     192.463
  O       79.803     -36.108     193.452
  C       78.184     -34.282     192.828
  N       76.882     -34.920     192.987
  C       75.807     -34.113     193.346
  O       75.876     -32.900     193.535
  N       74.605     -34.755     193.492
  C       74.378     -36.088     193.305
  O       73.272     -36.601     193.421
  C       75.554     -36.889     192.935
  C       76.731     -36.279     192.789
  O       77.725     -31.784     186.778
  O       78.614     -34.143     187.219
  H       78.473     -34.177     186.254
  H       80.357     -36.799     193.029
  H       73.814     -34.186     193.747
  H       75.410     -37.951     192.790
  H       77.615     -36.841     192.506
  H       78.427     -33.731     193.742
  H       79.079     -35.848     191.604
  H       81.223     -34.600     191.495
  H       79.837     -32.177     191.408
  H       80.529     -33.582     189.368
  H       78.970     -34.430     189.535
  P       82.433     -33.260     193.506
  C       82.534     -34.635     195.698
  O       82.647     -33.351     195.095
  O       83.005     -32.024     192.893
  O       83.158     -34.572     192.945
  H       84.081     -34.359     192.712
  H       82.699     -34.550     196.752
  H       83.264     -35.293     195.275
  H       81.555     -35.027     195.521

 6  7  8  9  10  11  12  13  14  15  16  27  31  32  33  34  35 0
 6-311+G(2d,p)
 ****
 36  37 0
 6-311+G(2d,p)
 ****
 1  2  3  4  5  17  18  19  20  21  22  23  24  25 0
 3-21G
 ****
 26  28  29  30  38  39  40  41  42  43  44  45 0
 3-21G
 ****


