%nproc=1
%NoSave
%Mem=1900MB
#P OB98/GEN NMR

erre ene a

0 1
  C      134.211     453.305     337.723
  O      134.785     454.253     336.845
  H      133.150     453.198     337.481
  H      134.304     453.642     338.759
  H      134.700     452.335     337.604
  P      136.326     454.627     337.112
  C      136.894     453.054     335.106
  O      137.126     453.394     336.465
  C      138.220     452.789     334.406
  O      138.001     452.188     333.111
  C      139.048     454.041     334.140
  O      139.740     454.502     335.289
  C      139.999     453.520     333.080
  O      141.010     452.702     333.696
  C      139.046     452.663     332.215
  N      138.464     453.404     331.095
  C      139.363     454.038     330.230
  O      140.577     453.978     330.428
  N      138.865     454.766     329.174
  C      137.585     454.845     328.990
  N      137.145     455.586     327.939
  C      136.601     454.175     329.865
  C      137.106     453.483     330.886
  O      136.509     454.378     338.680
  O      136.761     455.976     336.646
  H      140.554     451.938     334.098
  H      137.462     454.461     338.924
  H      135.544     454.276     329.677
  H      136.443     452.964     331.571
  H      139.563     451.778     331.822
  H      140.515     454.317     332.539
  H      138.439     454.841     333.702
  H      138.782     452.060     335.011
  H      137.837     456.084     327.393
  H      136.373     453.891     334.625
  H      136.174     455.851     327.826
  H      136.266     452.160     335.048
  P      140.493     455.917     335.187
  C      138.388     457.430     334.990
  O      139.537     456.895     334.345
  O      141.694     455.614     334.175
  O      140.984     456.469     336.491
  H      142.506     456.083     334.444
  H      137.855     458.058     334.307
  H      138.691     458.005     335.840
  H      137.753     456.630     335.309

 6  7  8  9  10  11  12  13  14  15  16  26  30  31  32  33  35 0
 6-311+G(2d,p)
 ****
 37  38 0
 6-311+G(2d,p)
 ****
 1  2  3  4  5  17  18  19  20  21  22  23  24  25 0
 3-21G
 ****
 27  28  29  34  36  39  40  41  42  43  44  45  46 0
 3-21G
 ****


