%nproc=1
%NoSave
%Mem=1900MB
#P OB98/GEN NMR

erre ene a

0 1
  C     -917.445     507.758     402.974
  O     -918.251     507.800     404.159
  P     -919.765     508.304     403.985
  C     -919.930     510.629     405.142
  O     -919.753     509.912     403.929
  C     -919.832     512.127     404.885
  O     -918.556     512.489     404.290
  C     -920.882     512.648     403.921
  O     -922.158     512.728     404.557
  C     -920.286     513.992     403.526
  O     -920.526     514.981     404.549
  C     -918.780     513.662     403.462
  N     -917.471     515.830     399.014
  C     -917.919     516.352     400.187
  N     -918.247     515.708     401.320
  C     -918.070     514.386     401.186
  C     -917.606     513.704     400.061
  C     -917.312     514.482     398.932
  N     -916.879     513.943     397.735
  N     -917.558     512.350     400.304
  C     -917.995     512.203     401.536
  N     -918.303     513.401     402.115
  O     -920.432     507.977     405.406
  O     -920.493     507.639     402.865
  H     -920.128     515.824     404.236
  H     -921.055     507.231     405.317
  H     -918.032     517.438     400.199
  H     -918.103     511.255     402.057
  H     -918.162     514.474     403.889
  H     -920.696     514.385     402.594
  H     -920.955     511.997     403.038
  H     -919.912     512.648     405.858
  H     -919.161     510.326     405.872
  H     -916.758     514.577     396.954
  H     -916.850     512.935     397.643
  H     -920.904     510.361     405.573
  P     -923.203     511.542     404.289
  C     -924.605     512.641     402.434
  O     -923.585     511.707     402.725
  O     -924.502     512.094     405.027
  O     -922.735     510.189     404.699
  H     -924.678     513.030     404.814
  H     -924.740     512.679     401.347
  H     -924.342     513.636     402.801
  H     -925.551     512.327     402.897
  H     -916.465     507.408     403.222
  H     -917.377     508.740     402.554
  H     -917.891     507.095     402.262

 3  4  5  6  7  8  9  10  11  12  22  25  29  30  31  32 0
 6-311+G(2d,p)
 ****
 33  36  37 0
 6-311+G(2d,p)
 ****
 1  2  13  14  15  16  17  18  19  20  21  23  24  26 0
 3-21G
 ****
 27  28  34  35  38  39  40  41  42  43  44  45  46  47  48 0
 3-21G
 ****


