%nproc=1
%NoSave
%Mem=1900MB
#P OB98/GEN NMR

erre ene a

0 1
  C       48.015    1703.634    -449.553
  O       48.415    1702.527    -450.336
  H       47.236    1704.177    -450.091
  H       48.855    1704.298    -449.387
  H       47.607    1703.300    -448.590
  P       49.449    1701.470    -449.715
  C       47.782    1699.543    -450.151
  O       48.590    1700.207    -449.194
  C       46.942    1698.440    -449.479
  O       47.832    1697.513    -448.809
  C       45.959    1698.998    -448.418
  O       44.749    1698.249    -448.488
  C       46.669    1698.731    -447.108
  O       45.761    1698.593    -446.028
  C       47.437    1697.455    -447.428
  N       49.100    1695.607    -443.007
  C       47.854    1695.498    -443.623
  N       46.910    1694.813    -442.932
  N       47.569    1696.018    -444.777
  C       48.616    1696.664    -445.350
  C       49.879    1696.835    -444.855
  C       50.185    1696.274    -443.562
  O       51.263    1696.356    -442.975
  N       50.663    1697.555    -445.745
  C       49.852    1697.822    -446.749
  N       48.614    1697.302    -446.568
  O       50.402    1702.026    -448.716
  O       50.214    1700.876    -450.980
  H       46.270    1698.335    -445.234
  H       51.129    1701.236    -451.044
  H       49.263    1695.199    -442.122
  H       50.132    1698.376    -447.638
  H       46.838    1696.547    -447.286
  H       47.360    1699.541    -446.884
  H       47.072    1694.363    -442.050
  H       45.741    1700.058    -448.576
  H       46.005    1694.688    -443.359
  H       46.397    1697.887    -450.255
  H       48.446    1699.093    -450.891
  H       47.138    1700.260    -450.649
  P       43.475    1698.857    -449.265
  C       43.166    1697.274    -451.272
  O       43.632    1698.549    -450.828
  O       43.155    1700.277    -448.912
  O       42.281    1697.875    -448.831
  H       41.471    1698.390    -448.748
  H       43.323    1697.184    -452.327
  H       42.122    1697.181    -451.058
  H       43.704    1696.501    -450.764

 6  7  8  9  10  11  12  13  14  15  26  29  33  34 0
 6-311+G(2d,p)
 ****
 36  38  39  40  41 0
 6-311+G(2d,p)
 ****
 1  2  3  4  5  16  17  18  19  20  21  22  23  24  25 0
 3-21G
 ****
 27  28  30  31  32  35  37  42  43  44  45  46  47 0
 3-21G
 ****
 48  49 0
 3-21G
 ****


