%nproc=1
%NoSave
%Mem=1900MB
#P OB98/GEN NMR

erre ene a

0 1
  C     -137.724     478.509     490.282
  O     -137.535     479.359     491.392
  H     -136.744     478.212     489.898
  H     -138.271     479.036     489.490
  H     -138.271     477.609     490.575
  P     -138.867     479.896     492.122
  C     -141.148     480.755     491.226
  O     -139.755     480.600     490.987
  C     -141.568     482.194     490.934
  O     -141.306     482.508     489.546
  C     -143.041     482.465     491.139
  O     -143.376     482.630     492.507
  C     -143.232     483.734     490.316
  O     -142.863     484.901     491.053
  C     -142.268     483.511     489.133
  N     -143.224     484.638     484.242
  C     -142.419     485.240     485.169
  N     -142.216     484.856     486.453
  C     -142.912     483.746     486.739
  C     -143.767     483.042     485.907
  C     -143.903     483.536     484.595
  N     -144.742     482.954     483.657
  N     -144.336     481.978     486.565
  C     -143.837     482.029     487.794
  N     -142.964     483.071     487.934
  O     -138.327     481.117     493.002
  O     -139.576     478.881     492.958
  H     -143.496     484.969     491.799
  H     -138.213     480.826     493.934
  H     -141.875     486.111     484.832
  H     -144.074     481.343     488.597
  H     -141.705     484.419     488.882
  H     -144.274     483.848     490.015
  H     -143.638     481.664     490.690
  H     -140.956     482.873     491.548
  H     -141.366     480.522     492.274
  H     -141.697     480.067     490.579
  H     -144.848     483.400     482.769
  H     -145.336     482.195     483.946
  P     -144.918     482.538     492.928
  C     -147.018     484.060     492.655
  O     -145.606     483.929     492.565
  O     -144.899     482.522     494.510
  O     -145.634     481.354     492.358
  H     -145.608     481.930     494.864
  H     -147.303     485.053     492.377
  H     -147.331     483.868     493.660
  H     -147.484     483.358     491.996

 6  7  8  9  10  11  12  13  14  15  25  28  32  33  34  35 0
 6-311+G(2d,p)
 ****
 36  37  40 0
 6-311+G(2d,p)
 ****
 1  2  3  4  5  16  17  18  19  20  21  22  23  24 0
 3-21G
 ****
 26  27  29  30  31  38  39 41  42  43  44  45  46  47  48 0
 3-21G
 ****


