%nproc=1
%NoSave
%Mem=1900MB
#P OB98/GEN NMR

erre ene a

0 1
  C      126.405    -585.523     754.543
  O      126.435    -584.181     754.111
  H      125.389    -585.909     754.416
  H      126.670    -585.584     755.600
  H      127.080    -586.140     753.943
  P      127.851    -583.447     753.928
  C      128.312    -582.911     756.412
  O      128.669    -583.712     755.283
  C      129.538    -582.712     757.313
  O      129.156    -581.793     758.395
  C      130.061    -584.016     757.965
  O      131.483    -583.930     758.086
  C      129.399    -583.954     759.337
  O      130.059    -584.774     760.262
  C      129.505    -582.447     759.628
  N      128.626    -582.055     760.726
  C      129.030    -582.401     762.011
  O      130.064    -583.005     762.265
  N      128.155    -582.089     763.019
  C      126.893    -581.581     762.853
  O      126.121    -581.399     763.783
  C      126.494    -581.282     761.465
  C      127.373    -581.531     760.483
  O      127.797    -582.019     753.479
  O      128.630    -584.380     752.882
  H      129.837    -584.488     761.170
  H      129.347    -583.878     752.442
  H      128.437    -582.319     763.957
  H      125.494    -580.900     761.294
  H      127.099    -581.353     759.442
  H      130.543    -582.160     759.883
  H      128.349    -584.265     759.269
  H      129.777    -584.910     757.395
  H      130.332    -582.213     756.730
  H      127.531    -583.454     756.966
  H      127.932    -581.945     756.078
  P      132.467    -584.460     756.933
  C      133.360    -586.550     758.137
  O      132.643    -586.067     757.014
  O      133.772    -583.718     756.838
  O      131.628    -584.249     755.571
  H      132.207    -583.851     754.899
  H      133.417    -587.618     758.092
  H      132.856    -586.258     759.035
  H      134.348    -586.140     758.133

 6  7  8  9  10  11  12  13  14  15  16  26  31  32  33  34  35 0
 6-311+G(2d,p)
 ****
 36  37 0
 6-311+G(2d,p)
 ****
 1  2  3  4  5  17  18  19  20  21  22  23  24  25 0
 3-21G
 ****
 27  28  29  30  38  39  40  41  42  43  44  45 0
 3-21G
 ****


