%nproc=1
%NoSave
%Mem=1900MB
#P OB98/GEN NMR

erre ene a

0 1
  C     -134.889     769.572     248.071
  O     -134.996     769.829     246.687
  H     -134.564     770.490     248.575
  H     -134.142     768.796     248.248
  H     -135.853     769.267     248.484
  P     -135.655     768.675     245.790
  C     -137.619     769.956     244.677
  O     -136.320     769.405     244.523
  C     -137.960     770.841     243.481
  O     -137.345     772.143     243.628
  C     -137.482     770.292     242.137
  O     -138.386     769.329     241.614
  C     -137.484     771.565     241.306
  O     -138.838     771.893     240.924
  C     -136.951     772.597     242.300
  N     -133.115     775.442     240.582
  C     -134.481     775.579     240.389
  N     -134.875     776.618     239.630
  N     -135.372     774.769     240.900
  C     -134.828     773.768     241.635
  C     -133.493     773.523     241.894
  C     -132.521     774.433     241.334
  O     -131.303     774.366     241.489
  N     -133.334     772.420     242.684
  C     -134.562     771.978     242.894
  N     -135.502     772.760     242.271
  O     -136.920     768.208     246.651
  O     -134.759     767.520     245.472
  H     -138.793     772.711     240.401
  H     -137.042     767.245     246.544
  H     -132.473     776.079     240.157
  H     -134.815     771.110     243.482
  H     -137.381     773.593     242.148
  H     -136.906     771.462     240.385
  H     -134.238     777.245     239.171
  H     -136.462     769.900     242.208
  H     -135.872     776.753     239.508
  H     -139.047     770.992     243.473
  H     -137.643     770.558     245.592
  H     -138.345     769.145     244.764
  P     -137.767     767.951     241.071
  C     -139.952     766.565     241.285
  O     -139.000     767.153     240.413
  O     -137.475     767.141     242.418
  O     -136.549     768.093     240.229
  H     -136.792     766.459     242.258
  H     -140.707     766.073     240.709
  H     -140.402     767.326     241.887
  H     -139.464     765.852     241.917

 6  7  8  9  10  11  12  13  14  15  26  29  33  34 0
 6-311+G(2d,p)
 ****
 36  38  39  40  41 0
 6-311+G(2d,p)
 ****
 1  2  3  4  5  16  17  18  19  20  21  22  23  24  25 0
 3-21G
 ****
 27  28  30  31  32  35  37  42  43  44  45  46  47 0
 3-21G
 ****
 48  49 0
 3-21G
 ****


