%nproc=1
%NoSave
%Mem=1900MB
#P OB98/GEN NMR

erre ene a

0 1
  C       52.956     168.200     -77.579
  O       53.873     169.239     -77.867
  H       52.164     168.600     -76.939
  H       53.463     167.388     -77.048
  H       52.509     167.822     -78.502
  P       55.135     168.844     -78.782
  C       56.999     167.044     -78.608
  O       55.989     167.782     -77.930
  C       57.929     166.370     -77.605
  O       58.667     167.361     -76.849
  C       57.225     165.485     -76.586
  O       56.961     164.197     -77.122
  C       58.247     165.453     -75.458
  O       59.296     164.499     -75.723
  C       58.792     166.889     -75.479
  N       59.424     170.256     -71.771
  C       60.357     169.557     -72.510
  N       61.655     169.747     -72.172
  N       60.052     168.741     -73.483
  C       58.717     168.627     -73.684
  C       57.694     169.278     -73.030
  C       58.050     170.205     -71.976
  O       57.275     170.901     -71.329
  N       56.471     168.911     -73.534
  C       56.751     168.015     -74.460
  N       58.102     167.794     -74.578
  O       56.048     170.161     -78.746
  O       54.810     168.440     -80.180
  H       59.699     164.698     -76.584
  H       56.538     170.231     -79.587
  H       59.721     170.886     -71.046
  H       56.019     167.500     -75.066
  H       59.858     166.930     -75.219
  H       57.792     165.161     -74.508
  H       61.920     170.081     -71.255
  H       56.302     165.960     -76.227
  H       62.342     169.223     -72.695
  H       58.664     165.789     -78.179
  H       57.580     167.730     -79.238
  H       56.525     166.289     -79.246
  P       55.505     163.566     -76.868
  C       54.235     162.664     -74.776
  O       55.469     163.112     -75.328
  O       55.561     162.176     -77.659
  O       54.368     164.420     -77.317
  H       54.656     161.835     -77.803
  H       54.379     162.400     -73.749
  H       53.891     161.809     -75.319
  H       53.508     163.446     -74.845

 6  7  8  9  10  11  12  13  14  15  26  29  33  34 0
 6-311+G(2d,p)
 ****
 36  38  39  40  41 0
 6-311+G(2d,p)
 ****
 1  2  3  4  5  16  17  18  19  20  21  22  23  24  25 0
 3-21G
 ****
 27  28  30  31  32  35  37  42  43  44  45  46  47 0
 3-21G
 ****
 48  49 0
 3-21G
 ****


