%nproc=1
%NoSave
%Mem=1900MB
#P OB98/GEN NMR

erre ene a

0 1
  C      -95.069    -194.819     320.051
  O      -93.984    -194.481     320.927
  P      -92.662    -195.392     320.806
  C      -92.624    -195.855     323.363
  O      -91.912    -195.374     322.229
  C      -91.845    -195.630     324.661
  O      -90.528    -196.220     324.536
  C      -91.646    -194.157     325.043
  O      -91.733    -194.039     326.468
  C      -90.201    -193.889     324.652
  O      -89.646    -192.785     325.365
  C      -89.570    -195.241     324.974
  N      -84.546    -195.030     325.517
  C      -85.542    -194.866     326.464
  N      -85.144    -194.586     327.722
  N      -86.820    -194.971     326.190
  C      -87.071    -195.288     324.900
  C      -86.170    -195.486     323.875
  C      -84.763    -195.326     324.180
  O      -83.833    -195.406     323.381
  N      -86.809    -195.790     322.698
  C      -88.088    -195.774     323.008
  N      -88.299    -195.464     324.326
  O      -91.711    -194.522     319.852
  O      -92.916    -196.747     320.232
  H      -89.528    -193.074     326.291
  H      -91.450    -195.053     319.074
  H      -83.578    -194.919     325.780
  H      -88.903    -195.947     322.316
  H      -89.429    -195.365     326.058
  H      -90.154    -193.663     323.579
  H      -84.178    -194.557     328.012
  H      -92.351    -193.467     324.568
  H      -85.859    -194.505     328.437
  H      -92.366    -196.165     325.466
  H      -92.814    -196.926     323.237
  H      -93.595    -195.348     323.406
  P      -93.171    -194.320     327.124
  C      -93.168    -191.985     328.273
  O      -93.252    -193.388     328.428
  O      -93.024    -195.796     327.719
  O      -94.313    -194.205     326.166
  H      -93.893    -196.237     327.757
  H      -93.252    -191.675     327.229
  H      -92.204    -191.645     328.669
  H      -93.973    -191.519     328.844
  H      -95.886    -194.150     320.221
  H      -95.384    -195.823     320.244
  H      -94.746    -194.736     319.034

 3  4  5  6  7  8  9  10  11  12  23  26  30  31  33  0
 6-311+G(2d,p)
 ****
 35  36  37  38 0
 6-311+G(2d,p)
 ****
 1  2  13  14  15  16  17  18  19  20  21  22  24  25  27  28  29 0
 3-21G
 ****
 32  34  39  40  41  42  43  44  45  46  47  48  49 0
 3-21G
 ****


