%nproc=1
%NoSave
%Mem=1900MB
#P OB98/GEN NMR

erre ene a

0 1
  C      316.176     109.360     -98.404
  O      316.283     110.436     -99.347
  P      317.615     110.713    -100.213
  C      318.863     112.345     -98.650
  O      318.836     111.045     -99.222
  C      319.980     112.488     -97.603
  O      320.197     113.898     -97.292
  C      319.706     111.760     -96.280
  O      320.959     111.207     -95.848
  C      319.257     112.905     -95.382
  O      319.337     112.609     -93.989
  C      320.222     114.002     -95.854
  N      319.887     115.359     -95.416
  C      320.882     116.333     -95.500
  O      322.019     116.061     -95.867
  N      320.562     117.630     -95.139
  C      319.367     117.912     -94.729
  N      319.110     119.215     -94.399
  C      318.292     116.907     -94.613
  C      318.612     115.673     -94.971
  O      317.424     111.745    -101.286
  O      318.011     109.304    -100.855
  H      318.379     109.450    -101.748
  H      320.265     112.452     -93.766
  H      317.301     117.188     -94.276
  H      317.874     114.874     -94.947
  H      321.241     113.758     -95.521
  H      318.213     113.146     -95.604
  H      318.978     110.948     -96.364
  H      320.916     112.126     -98.056
  H      319.875     119.876     -94.499
  H      317.899     112.529     -98.161
  H      318.212     119.545     -94.081
  H      318.983     113.087     -99.446
  P      321.255     109.645     -96.042
  C      320.878     108.830     -93.589
  O      320.415     108.844     -94.923
  O      322.753     109.514     -95.476
  O      321.181     109.130     -97.447
  H      323.183     108.751     -95.894
  H      320.035     108.997     -92.916
  H      321.649     109.589     -93.401
  H      321.302     107.836     -93.379
  H      315.206     109.376     -97.953
  H      316.923     109.474     -97.646
  H      316.320     108.428     -98.909

 3  4  5  6  7  8  9  10  11  12  13  24  27  28  29  30  32 0
 6-311+G(2d,p)
 ****
 34  35 0
 6-311+G(2d,p)
 ****
 1  2  14  15  16  17  18  19  20  21  22  23  25  26 0
 3-21G
 ****
 31  33  36  37  38  39  40  41  42  43  44  45  46 0
 3-21G
 ****


