%nproc=1
%NoSave
%Mem=1900MB
#P OB98/GEN NMR

erre ene a

0 1
  C      138.091      76.550    -117.818
  O      138.569      75.447    -118.563
  P      137.895      75.017    -119.950
  C      135.626      74.012    -120.632
  O      136.376      74.627    -119.596
  C      134.121      74.160    -120.398
  O      133.775      75.574    -120.343
  C      133.236      73.509    -121.469
  O      132.064      73.037    -120.795
  C      132.892      74.685    -122.370
  O      131.750      74.444    -123.179
  C      132.747      75.810    -121.330
  N      132.857      77.130    -121.937
  C      131.669      77.851    -122.095
  O      130.586      77.332    -121.802
  N      131.719      79.113    -122.632
  C      132.855      79.574    -123.068
  N      132.851      80.832    -123.587
  C      134.109      78.799    -123.037
  C      134.041      77.603    -122.452
  O      138.643      73.984    -120.726
  O      137.722      76.401    -120.734
  H      131.464      75.297    -123.572
  H      138.590      76.693    -121.114
  H      135.016      79.200    -123.464
  H      134.911      76.963    -122.378
  H      131.774      75.738    -120.817
  H      133.735      74.896    -123.037
  H      133.728      72.697    -122.009
  H      133.889      73.732    -119.411
  H      131.970      81.333    -123.572
  H      135.873      72.947    -120.644
  H      133.689      81.311    -123.881
  H      135.909      74.432    -121.600
  P      131.140      71.895    -121.434
  C      129.694      71.624    -123.535
  O      130.490      72.508    -122.765
  O      130.161      71.268    -120.491
  O      132.177      70.812    -122.003
  H      131.709      69.973    -122.180
  H      129.088      72.207    -124.236
  H      129.029      71.038    -122.893
  H      130.344      70.947    -124.099
  H      138.678      76.663    -116.931
  H      137.069      76.383    -117.550
  H      138.164      77.439    -118.410

 3  4  5  6  7  8  9  10  11  12  13  23  27  28  29  30  32 0
 6-311+G(2d,p)
 ****
 34  35 0
 6-311+G(2d,p)
 ****
 1  2  14  15  16  17  18  19  20  21  22  24  25  26 0
 3-21G
 ****
 31  33  36  37  38  39  40  41  42  43  44  45  46 0
 3-21G
 ****


