%nproc=1
%NoSave
%Mem=1900MB
#P OB98/GEN NMR

erre ene a

0 1
  C       20.958     -78.003      62.936
  O       22.308     -78.289      62.640
  H       20.738     -76.984      62.609
  H       20.779     -78.071      64.012
  H       20.296     -78.692      62.403
  P       22.910     -79.709      63.079
  C       24.190     -78.404      64.901
  O       23.407     -79.553      64.597
  C       25.365     -78.791      65.808
  O       24.826     -79.115      67.114
  C       26.134     -80.012      65.285
  O       27.536     -79.780      65.176
  C       25.663     -81.136      66.200
  O       26.582     -82.200      66.337
  C       25.326     -80.407      67.504
  N       24.348     -81.107      68.336
  C       24.716     -81.395      69.648
  O       25.790     -81.097      70.163
  N       23.775     -82.060      70.393
  C       22.547     -82.465      69.963
  O       21.746     -83.055      70.679
  C       22.229     -82.158      68.560
  C       23.130     -81.504      67.823
  O       23.918     -80.296      62.150
  O       21.621     -80.650      63.218
  H       26.068     -82.994      66.601
  H       21.579     -81.257      62.455
  H       24.022     -82.261      71.349
  H       21.267     -82.476      68.182
  H       22.926     -81.259      66.784
  H       26.224     -80.259      68.105
  H       24.743     -81.560      65.781
  H       25.838     -80.246      64.256
  H       26.020     -77.920      65.927
  H       23.543     -77.680      65.406
  H       24.568     -77.961      63.974
  P       28.228     -78.833      64.096
  C       29.470     -80.852      62.958
  O       28.629     -79.715      62.824
  O       29.266     -77.896      64.618
  O       27.007     -77.938      63.537
  H       27.390     -77.067      63.305
  H       29.618     -81.302      61.998
  H       29.011     -81.559      63.617
  H       30.415     -80.551      63.360

 6  7  8  9  10  11  12  13  14  15  16  26  31  32  33  34  35 0
 6-311+G(2d,p)
 ****
 36  37 0
 6-311+G(2d,p)
 ****
 1  2  3  4  5  17  18  19  20  21  22  23  24  25 0
 3-21G
 ****
 27  28  29  30  38  39  40  41  42  43  44  45 0
 3-21G
 ****


