%nproc=1
%NoSave
%Mem=1900MB
#P OB98/GEN NMR

erre ene a

0 1
  C     -140.961     113.414      26.155
  O     -142.194     114.036      25.857
  H     -140.361     113.377      25.241
  H     -141.125     112.391      26.504
  H     -140.415     113.985      26.909
  P     -143.267     114.211      27.037
  C     -144.539     112.523      28.538
  O     -143.667     112.703      27.432
  C     -145.363     111.251      28.358
  O     -146.458     111.461      27.442
  C     -144.597     110.069      27.774
  O     -143.697     109.462      28.685
  C     -145.757     109.158      27.415
  O     -146.276     108.543      28.607
  C     -146.760     110.176      26.826
  N     -146.674     110.274      25.368
  C     -147.157     109.182      24.637
  O     -147.617     108.197      25.211
  N     -147.076     109.216      23.265
  C     -146.537     110.239      22.676
  N     -146.476     110.216      21.315
  C     -145.998     111.401      23.408
  C     -146.100     111.356      24.733
  O     -144.415     115.125      26.750
  O     -142.400     114.656      28.306
  H     -145.511     108.197      29.103
  H     -143.020     114.789      29.065
  H     -145.533     112.215      22.872
  H     -145.720     112.170      25.343
  H     -147.789     109.918      27.103
  H     -145.479     108.354      26.730
  H     -144.081     110.355      26.849
  H     -145.801     111.004      29.335
  H     -146.853     109.407      20.841
  H     -145.185     113.404      28.611
  H     -146.007     110.934      20.779
  H     -143.959     112.432      29.461
  P     -142.326     108.881      28.077
  C     -141.712     106.823      26.592
  O     -142.712     107.534      27.303
  O     -141.540     108.378      29.374
  O     -141.530     109.853      27.263
  H     -140.881     109.040      29.658
  H     -142.145     105.955      26.140
  H     -140.938     106.524      27.268
  H     -141.299     107.453      25.832

 6  7  8  9  10  11  12  13  14  15  16  26  30  31  32  33  35 0
 6-311+G(2d,p)
 ****
 37  38 0
 6-311+G(2d,p)
 ****
 1  2  3  4  5  17  18  19  20  21  22  23  24  25 0
 3-21G
 ****
 27  28  29  34  36  39  40  41  42  43  44  45  46 0
 3-21G
 ****


