%nproc=1
%NoSave
%Mem=1900MB
#P OB98/GEN NMR

erre ene a

0 1
  C       20.626    -130.775    -375.135
  O       20.234    -130.941    -376.482
  H       21.699    -130.962    -375.055
  H       20.097    -131.500    -374.512
  H       20.415    -129.761    -374.787
  P       18.809    -130.343    -376.911
  C       19.473    -127.856    -377.250
  O       19.108    -129.084    -377.864
  C       19.179    -126.684    -378.186
  O       19.346    -125.440    -377.439
  C       20.099    -126.617    -379.417
  O       19.338    -126.151    -380.539
  C       21.092    -125.533    -379.035
  O       21.698    -124.930    -380.173
  C       20.192    -124.594    -378.239
  N       23.559    -120.883    -378.516
  C       22.806    -121.485    -379.502
  N       23.021    -121.084    -380.773
  N       21.915    -122.412    -379.264
  C       21.784    -122.708    -377.949
  C       22.472    -122.188    -376.880
  C       23.468    -121.175    -377.156
  O       24.182    -120.619    -376.329
  N       22.091    -122.797    -375.708
  C       21.194    -123.695    -376.076
  N       20.975    -123.680    -377.425
  O       18.289    -129.673    -375.553
  O       17.835    -131.335    -377.452
  H       22.153    -124.114    -379.880
  H       17.713    -130.298    -375.076
  H       24.243    -120.186    -378.754
  H       20.693    -124.386    -375.413
  H       19.551    -123.978    -378.883
  H       21.882    -125.954    -378.402
  H       23.667    -120.355    -381.032
  H       20.580    -127.569    -379.666
  H       22.447    -121.490    -381.502
  H       18.127    -126.734    -378.491
  H       20.545    -127.872    -377.024
  H       18.919    -127.743    -376.312
  P       19.485    -126.936    -381.928
  C       18.175    -129.180    -381.791
  O       18.162    -127.810    -382.166
  O       20.599    -128.039    -381.603
  O       19.892    -126.069    -383.072
  H       21.147    -128.198    -382.393
  H       17.225    -129.620    -382.013
  H       18.369    -129.261    -380.742
  H       18.941    -129.692    -382.336

 6  7  8  9  10  11  12  13  14  15  26  29  33  34 0
 6-311+G(2d,p)
 ****
 36  38  39  40  41 0
 6-311+G(2d,p)
 ****
 1  2  3  4  5  16  17  18  19  20  21  22  23  24  25 0
 3-21G
 ****
 27  28  30  31  32  35  37  42  43  44  45  46  47 0
 3-21G
 ****
 48  49 0
 3-21G
 ****


