%nproc=1
%NoSave
%Mem=1900MB
#P OB98/GEN NMR

erre ene a

0 1
  C     -460.489    -696.986    -966.830
  O     -461.551    -697.714    -966.217
  P     -461.449    -698.167    -964.677
  C     -463.287    -696.591    -963.853
  O     -461.915    -696.947    -963.733
  C     -463.815    -695.777    -962.646
  O     -463.726    -696.541    -961.425
  C     -463.075    -694.443    -962.400
  O     -464.064    -693.543    -961.903
  C     -462.089    -694.815    -961.330
  O     -461.569    -693.690    -960.638
  C     -462.912    -695.794    -960.495
  N     -462.077    -696.686    -959.683
  C     -461.323    -696.104    -958.674
  O     -461.331    -694.872    -958.523
  N     -460.527    -696.900    -957.884
  C     -460.428    -698.168    -958.147
  N     -459.616    -698.911    -957.346
  C     -461.152    -698.814    -959.271
  C     -461.942    -698.024    -959.978
  O     -460.146    -698.780    -964.288
  O     -462.640    -699.231    -964.507
  H     -461.100    -693.998    -959.839
  H     -462.388    -699.890    -963.827
  H     -461.024    -699.870    -959.468
  H     -462.520    -698.419    -960.808
  H     -463.583    -695.251    -959.828
  H     -461.227    -695.342    -961.797
  H     -462.600    -694.037    -963.311
  H     -464.872    -695.582    -962.843
  H     -459.121    -698.416    -956.619
  H     -463.880    -697.502    -963.951
  H     -459.375    -699.859    -957.541
  H     -463.432    -696.012    -964.771
  P     -464.636    -692.324    -962.782
  C     -466.856    -692.469    -961.511
  O     -466.232    -692.474    -962.775
  O     -464.023    -692.174    -964.130
  O     -464.396    -691.018    -961.890
  H     -464.438    -690.219    -962.441
  H     -467.931    -692.351    -961.637
  H     -466.482    -691.653    -960.879
  H     -466.652    -693.424    -961.006
  H     -460.741    -696.778    -967.849
  H     -459.592    -697.568    -966.796
  H     -460.338    -696.066    -966.305

 3  4  5  6  7  8  9  10  11  12  13  23  27  28  29  30  32 0
 6-311+G(2d,p)
 ****
 34  35 0
 6-311+G(2d,p)
 ****
 1  2  14  15  16  17  18  19  20  21  22  24  25  26 0
 3-21G
 ****
 31  33  36  37  38  39  40  41  42  43  44  45  46 0
 3-21G
 ****


