%nproc=1
%NoSave
%Mem=1900MB
#P OB98/GEN NMR

erre ene a

0 1
  C        6.885     -38.857     -24.814
  O        5.767     -38.673     -25.659
  P        4.884     -39.927     -26.129
  C        2.705     -38.784     -25.357
  O        3.577     -39.900     -25.196
  C        1.495     -38.901     -24.431
  O        1.912     -38.915     -23.052
  C        0.504     -37.752     -24.554
  O       -0.290     -37.900     -25.717
  C       -0.259     -37.882     -23.243
  O       -1.289     -38.879     -23.336
  C        0.849     -38.333     -22.267
  N        1.330     -37.241     -21.430
  C        0.889     -37.250     -20.102
  O        0.115     -38.123     -19.708
  N        1.299     -36.239     -19.266
  C        2.059     -35.294     -19.724
  N        2.420     -34.316     -18.851
  C        2.519     -35.232     -21.126
  C        2.119     -36.226     -21.915
  O        5.607     -41.230     -26.182
  O        4.317     -39.456     -27.551
  H       -1.791     -38.831     -22.498
  H        5.018     -39.485     -28.246
  H        3.142     -34.418     -21.464
  H        2.408     -36.257     -22.959
  H        0.480     -39.130     -21.609
  H       -0.746     -36.944     -22.957
  H        1.043     -36.798     -24.572
  H        0.995     -39.856     -24.645
  H        2.059     -34.379     -17.907
  H        2.364     -38.760     -26.396
  H        2.977     -33.517     -19.111
  H        3.259     -37.861     -25.156
  P       -0.186     -36.824     -26.896
  C        0.254     -38.711     -28.577
  O        0.695     -37.467     -28.070
  O        0.218     -35.450     -26.476
  O       -1.662     -36.812     -27.520
  H       -1.932     -35.888     -27.677
  H        0.713     -38.873     -29.556
  H       -0.833     -38.728     -28.687
  H        0.567     -39.511     -27.902
  H        7.341     -37.910     -24.614
  H        7.593     -39.499     -25.294
  H        6.567     -39.302     -23.894

 3  4  5  6  7  8  9  10  11  12  13  23  27  28  29  30  32 0
 6-311+G(2d,p)
 ****
 34  35 0
 6-311+G(2d,p)
 ****
 1  2  14  15  16  17  18  19  20  21  22  24  25  26 0
 3-21G
 ****
 31  33  36  37  38  39  40  41  42  43  44  45  46 0
 3-21G
 ****


