%nproc=1
%NoSave
%Mem=1900MB
#P OB98/GEN NMR

erre ene a

0 1
  C     -122.408    -136.125      86.813
  O     -122.836    -134.798      86.495
  P     -124.418    -134.529      86.479
  C     -124.835    -134.867      83.945
  O     -125.060    -135.355      85.260
  C     -126.125    -134.882      83.115
  O     -126.637    -136.239      82.978
  C     -127.252    -134.039      83.716
  O     -128.013    -133.491      82.632
  C     -128.102    -135.069      84.434
  O     -129.420    -134.584      84.680
  C     -127.997    -136.239      83.458
  N     -131.795    -139.096      85.322
  C     -131.778    -137.870      84.759
  N     -130.717    -137.165      84.306
  C     -129.588    -137.880      84.444
  C     -129.445    -139.137      85.006
  C     -130.619    -139.757      85.464
  N     -130.635    -140.996      86.062
  N     -128.117    -139.519      85.014
  C     -127.472    -138.507      84.469
  N     -128.321    -137.507      84.081
  O     -124.523    -133.005      85.999
  O     -125.077    -134.731      87.804
  H     -129.809    -135.111      85.409
  H     -124.788    -132.439      86.749
  H     -132.748    -137.385      84.663
  H     -126.404    -138.443      84.340
  H     -128.665    -136.123      82.594
  H     -127.644    -135.323      85.398
  H     -126.919    -133.236      84.380
  H     -125.891    -134.517      82.107
  H     -124.080    -135.478      83.443
  H     -131.515    -141.357      86.389
  H     -129.761    -141.477      86.216
  H     -124.413    -133.858      84.005
  P     -127.670    -131.984      82.209
  C     -129.843    -131.246      83.417
  O     -128.456    -131.040      83.237
  O     -128.462    -131.788      80.832
  O     -126.210    -131.708      82.060
  H     -128.031    -131.100      80.291
  H     -130.081    -131.135      84.480
  H     -130.162    -132.239      83.087
  H     -130.393    -130.489      82.851
  H     -121.339    -136.170      86.790
  H     -122.810    -136.811      86.096
  H     -122.755    -136.387      87.791

 3  4  5  6  7  8  9  10  11  12  22  25  29  30  31  32 0
 6-311+G(2d,p)
 ****
 33  36  37 0
 6-311+G(2d,p)
 ****
 1  2  13  14  15  16  17  18  19  20  21  23  24  26 0
 3-21G
 ****
 27  28  34  35  38  39  40  41  42  43  44  45  46  47  48 0
 3-21G
 ****


