%nproc=1
%NoSave
%Mem=1900MB
#P OB98/GEN NMR

erre ene a

0 1
  C      531.618     556.134     655.788
  O      531.126     555.263     654.761
  P      531.649     553.761     654.580
  C      534.017     554.404     653.763
  O      533.257     553.754     654.776
  C      535.513     554.219     653.960
  O      535.961     554.815     655.208
  C      535.965     552.749     654.029
  O      536.036     552.185     652.748
  C      537.306     552.876     654.753
  O      538.344     553.262     653.835
  C      537.023     554.026     655.759
  N      538.611     551.244     659.745
  C      539.223     551.585     658.570
  N      538.712     552.316     657.553
  C      537.481     552.757     657.850
  C      536.750     552.523     659.003
  C      537.378     551.719     659.988
  N      536.767     551.375     661.174
  N      535.515     553.115     658.946
  C      535.509     553.734     657.772
  N      536.675     553.547     657.080
  O      531.200     553.090     653.338
  O      531.126     552.982     655.882
  H      538.062     554.096     653.413
  H      531.004     552.046     655.669
  H      540.219     551.186     658.424
  H      534.679     554.321     657.390
  H      537.889     554.687     655.862
  H      537.616     551.944     655.229
  H      535.275     552.177     654.661
  H      536.047     554.723     653.144
  H      533.789     555.484     653.785
  H      537.262     550.780     661.811
  H      535.809     551.672     661.341
  H      533.722     554.010     652.785
  P      535.115     550.942     652.351
  C      536.959     549.175     652.608
  O      535.718     549.655     653.101
  O      534.843     550.760     650.893
  O      533.759     551.206     653.167
  H      532.997     550.816     652.680
  H      536.802     548.576     651.712
  H      537.409     548.553     653.382
  H      537.645     550.000     652.393
  H      531.128     557.082     655.717
  H      532.673     556.268     655.667
  H      531.421     555.702     656.747

 3  4  5  6  7  8  9  10  11  12  22  25  29  30  31  32 0
 6-311+G(2d,p)
 ****
 33  36  37 0
 6-311+G(2d,p)
 ****
 1  2  13  14  15  16  17  18  19  20  21  23  24  26 0
 3-21G
 ****
 27  28  34  35  38  39  40  41  42  43  44  45  46  47  48 0
 3-21G
 ****


