%nproc=1
%NoSave
%Mem=1900MB
#P OB98/GEN NMR

erre ene a

0 1
  C     -176.213     -58.826    -158.636
  O     -176.124     -59.563    -159.843
  P     -175.767     -61.122    -159.762
  C     -178.239     -61.933    -159.733
  O     -176.996     -61.867    -159.049
  C     -178.543     -63.373    -160.150
  O     -178.383     -64.254    -158.996
  C     -179.966     -63.581    -160.690
  O     -179.902     -64.597    -161.702
  C     -180.702     -64.117    -159.476
  O     -181.901     -64.802    -159.805
  C     -179.609     -65.004    -158.869
  N     -179.878     -65.366    -157.479
  C     -180.964     -66.202    -157.233
  O     -181.701     -66.646    -158.112
  N     -181.223     -66.472    -155.917
  C     -180.578     -65.931    -154.842
  O     -180.935     -66.120    -153.686
  C     -179.441     -65.054    -155.161
  C     -179.145     -64.817    -156.442
  O     -174.603     -61.175    -158.665
  O     -175.343     -61.732    -161.058
  H     -181.653     -65.617    -160.278
  H     -173.731     -61.242    -159.097
  H     -182.001     -67.085    -155.721
  H     -178.891     -64.625    -154.333
  H     -178.323     -64.159    -156.706
  H     -179.488     -65.919    -159.465
  H     -180.960     -63.287    -158.809
  H     -180.421     -62.670    -161.093
  H     -177.804     -63.683    -160.901
  H     -178.191     -61.304    -160.624
  H     -179.035     -61.541    -159.089
  P     -181.067     -64.630    -162.809
  C     -179.596     -63.297    -164.510
  O     -180.805     -63.390    -163.789
  O     -182.327     -64.170    -161.931
  O     -181.245     -65.966    -163.455
  H     -182.118     -63.430    -161.337
  H     -179.223     -64.283    -164.804
  H     -178.846     -62.795    -163.896
  H     -179.769     -62.703    -165.413
  H     -176.457     -57.808    -158.857
  H     -175.274     -58.865    -158.124
  H     -176.975     -59.249    -158.015

 3  4  5  6  7  8  9  10  11  12  13  23  28  29  30  31  32 0
 6-311+G(2d,p)
 ****
 33  34 0
 6-311+G(2d,p)
 ****
 1  2  14  15  16  17  18  19  20  21  22  24  25  26 0
 3-21G
 ****
 27  35  36  37  38  39  40  41  42  43  44  45 0
 3-21G
 ****


