%nproc=1
%NoSave
%Mem=1900MB
#P OB98/GEN NMR

erre ene a

0 1
  C      248.462     -97.650    -180.312
  O      249.123     -98.088    -179.144
  P      248.475     -98.015    -177.686
  C      247.990     -96.165    -175.925
  O      248.668     -96.519    -177.127
  C      248.493     -94.847    -175.319
  O      249.862     -95.007    -174.893
  C      248.500     -93.743    -176.386
  O      247.315     -93.025    -176.674
  C      249.711     -92.879    -176.053
  O      249.360     -91.706    -175.315
  C      250.585     -93.802    -175.203
  N      254.979     -92.138    -177.114
  C      254.082     -91.482    -176.295
  N      254.298     -90.158    -176.120
  N      253.059     -92.066    -175.719
  C      252.924     -93.370    -176.064
  C      253.752     -94.130    -176.855
  C      254.897     -93.482    -177.449
  O      255.667     -94.008    -178.249
  N      253.258     -95.395    -177.046
  C      252.108     -95.389    -176.400
  N      251.842     -94.172    -175.824
  O      248.747     -99.162    -176.769
  O      246.900     -98.043    -178.040
  H      250.167     -91.164    -175.212
  H      246.447     -98.524    -177.321
  H      255.700     -91.614    -177.592
  H      251.418     -96.225    -176.353
  H      250.829     -93.329    -174.243
  H      250.198     -92.531    -176.972
  H      254.983     -89.649    -176.661
  H      248.756     -94.228    -177.336
  H      253.570     -89.614    -175.670
  H      247.929     -94.586    -174.420
  H      248.119     -96.987    -175.220
  H      246.916     -96.079    -176.124
  P      246.872     -92.467    -178.105
  C      247.856     -91.019    -179.972
  O      248.018     -91.489    -178.644
  O      245.670     -91.458    -177.779
  O      246.425     -93.509    -179.079
  H      245.113     -91.342    -178.571
  H      248.812     -90.630    -180.332
  H      247.115     -90.213    -179.985
  H      247.528     -91.826    -180.634
  H      249.097     -97.801    -181.159
  H      248.230     -96.609    -180.222
  H      247.558     -98.207    -180.440

 3  4  5  6  7  8  9  10  11  12  23  26  30  31 0
 6-311+G(2d,p)
 ****
 33  35  36  37  38 0
 6-311+G(2d,p)
 ****
 1  2  13  14  15  16  17  18  19  20  21  22  24  25 0
 3-21G
 ****
 27  28  29  32  34  39  40  41  42  43  44  45  46  47  48  49 0
 3-21G
 ****


