%nproc=1
%NoSave
%Mem=1900MB
#P OB98/GEN NMR

erre ene a

0 1
  C      -82.925    -485.361    -645.387
  O      -83.986    -484.982    -644.535
  H      -83.086    -484.906    -646.369
  H      -82.899    -486.443    -645.503
  H      -81.963    -485.002    -644.995
  P      -83.925    -485.396    -642.985
  C      -86.223    -486.575    -642.922
  O      -85.437    -485.486    -642.452
  C      -87.285    -486.085    -643.913
  O      -88.131    -485.108    -643.245
  C      -86.709    -485.416    -645.166
  O      -87.510    -485.760    -646.300
  C      -86.835    -483.936    -644.873
  O      -86.915    -483.147    -646.062
  C      -88.105    -483.892    -644.036
  N      -89.336    -478.996    -643.769
  C      -89.522    -479.907    -644.787
  N      -90.115    -479.447    -645.911
  N      -89.172    -481.164    -644.716
  C      -88.614    -481.499    -643.516
  C      -88.376    -480.685    -642.424
  C      -88.759    -479.286    -642.529
  O      -88.602    -478.425    -641.670
  N      -87.775    -481.384    -641.414
  C      -87.653    -482.614    -641.873
  N      -88.131    -482.726    -643.161
  O      -83.011    -484.550    -642.143
  O      -83.458    -486.925    -642.999
  H      -86.864    -482.206    -645.784
  H      -82.517    -487.009    -642.732
  H      -89.626    -478.039    -643.883
  H      -87.227    -483.443    -641.341
  H      -89.014    -483.860    -644.642
  H      -85.962    -483.595    -644.303
  H      -90.431    -478.497    -646.035
  H      -85.669    -485.716    -645.347
  H      -90.289    -480.104    -646.669
  H      -87.929    -486.936    -644.180
  H      -86.709    -487.050    -642.061
  H      -85.562    -487.309    -643.413
  P      -87.153    -487.087    -647.141
  C      -87.297    -486.413    -649.615
  O      -87.962    -487.056    -648.527
  O      -87.254    -488.375    -646.377
  O      -85.638    -486.818    -647.603
  H      -85.152    -487.670    -647.616
  H      -87.920    -486.448    -650.485
  H      -86.374    -486.916    -649.816
  H      -87.099    -485.393    -649.359

 6  7  8  9  10  11  12  13  14  15  26  29  33  34 0
 6-311+G(2d,p)
 ****
 36  38  39  40  41 0
 6-311+G(2d,p)
 ****
 1  2  3  4  5  16  17  18  19  20  21  22  23  24  25 0
 3-21G
 ****
 27  28  30  31  32  35  37  42  43  44  45  46  47 0
 3-21G
 ****
 48  49 0
 3-21G
 ****


