%nproc=1
%NoSave
%Mem=1900MB
#P OB98/GEN NMR

erre ene a

0 1
  C      572.167    -533.404     960.679
  O      572.935    -532.377     961.309
  P      572.294    -531.688     962.612
  C      570.794    -529.889     961.420
  O      570.875    -531.117     962.159
  C      569.346    -529.450     961.300
  O      568.619    -530.316     960.368
  C      568.556    -529.516     962.595
  O      568.909    -528.467     963.486
  C      567.117    -529.466     962.073
  O      566.749    -528.108     961.779
  C      567.229    -530.289     960.763
  N      566.692    -531.630     960.879
  C      565.305    -531.714     960.980
  O      564.566    -530.748     961.005
  N      564.790    -532.985     961.105
  C      565.520    -534.143     961.139
  O      565.007    -535.253     961.232
  C      566.983    -533.995     961.077
  C      567.506    -532.762     960.950
  O      573.230    -530.376     962.758
  O      572.301    -532.589     963.808
  H      573.488    -530.015     961.893
  H      567.394    -527.782     961.120
  H      563.798    -533.070     961.150
  H      567.583    -534.876     961.142
  H      568.577    -532.626     960.916
  H      566.693    -529.770     959.962
  H      566.393    -529.860     962.800
  H      568.731    -530.494     963.079
  H      569.317    -528.418     960.907
  H      571.207    -530.035     960.419
  H      571.395    -529.133     961.934
  P      569.848    -528.838     964.722
  C      567.896    -529.363     966.402
  O      569.009    -529.836     965.659
  O      569.852    -527.458     965.539
  O      571.208    -529.337     964.326
  H      568.981    -527.056     965.613
  H      567.278    -530.197     966.679
  H      567.305    -528.636     965.828
  H      568.254    -528.885     967.317
  H      572.700    -533.778     959.830
  H      571.227    -533.003     960.361
  H      571.998    -534.200     961.374

 3  4  5  6  7  8  9  10  11  12  13  24  28  29  30  31  32 0
 6-311+G(2d,p)
 ****
 33  34 0
 6-311+G(2d,p)
 ****
 1  2  14  15  16  17  18  19  20  21  22  23  25  26  27 0
 3-21G
 ****
 35  36  37  38  39  40  41  42  43  44  45 0
 3-21G
 ****


