%nproc=1
%NoSave
%Mem=1900MB
#P OB98/GEN NMR

erre ene a

0 1
  C     -614.377    -899.397    -891.680
  O     -614.725    -898.327    -892.580
  P     -613.602    -897.267    -893.030
  C     -613.930    -896.667    -895.560
  O     -613.277    -897.487    -894.580
  C     -615.015    -897.467    -896.280
  O     -616.049    -897.897    -895.360
  C     -615.727    -896.717    -897.380
  O     -614.944    -896.607    -898.550
  C     -616.983    -897.567    -897.560
  O     -616.728    -898.687    -898.430
  C     -617.268    -898.037    -896.130
  N     -618.371    -897.307    -895.500
  C     -619.614    -897.937    -895.540
  O     -619.822    -898.997    -896.110
  N     -620.637    -897.247    -894.930
  C     -620.555    -896.027    -894.340
  O     -621.504    -895.457    -893.810
  C     -619.220    -895.387    -894.390
  C     -618.214    -896.037    -894.960
  O     -612.291    -897.867    -892.320
  O     -613.848    -895.857    -892.590
  H     -616.579    -898.317    -899.320
  H     -611.669    -897.137    -892.140
  H     -621.539    -897.707    -894.910
  H     -619.114    -894.397    -893.960
  H     -617.231    -895.587    -895.010
  H     -617.496    -899.097    -896.110
  H     -617.806    -896.997    -898.010
  H     -616.018    -895.727    -897.010
  H     -614.539    -898.387    -896.690
  H     -613.193    -896.327    -896.280
  H     -614.365    -895.797    -895.060
  P     -613.876    -895.407    -898.610
  C     -611.788    -896.947    -898.300
  O     -612.609    -895.917    -897.770
  O     -614.583    -894.337    -897.650
  O     -613.608    -894.917    -900.000
  H     -615.088    -894.747    -896.940
  H     -611.725    -896.887    -899.400
  H     -612.184    -897.917    -898.000
  H     -610.792    -896.827    -897.880
  H     -615.241    -900.000    -891.492
  H     -614.021    -898.986    -890.758
  H     -613.611    -900.000    -892.122

 3  4  5  6  7  8  9  10  11  12  13  23  28  29  30  31  32 0
 6-311+G(2d,p)
 ****
 33  34 0
 6-311+G(2d,p)
 ****
 1  2  14  15  16  17  18  19  20  21  22  24  25  26 0
 3-21G
 ****
 27  35  36  37  38  39  40  41  42  43  44  45 0
 3-21G
 ****


