%nproc=1
%NoSave
%Mem=1900MB
#P OB98/GEN NMR

erre ene a

0 1
  C       86.407    -125.862     167.646
  O       87.280    -126.263     168.680
  H       85.446    -126.365     167.784
  H       86.816    -126.154     166.674
  H       86.242    -124.781     167.671
  P       88.698    -125.534     168.820
  C       90.142    -127.672     168.924
  O       89.657    -126.536     169.624
  C       90.318    -128.862     169.876
  O       89.008    -129.466     170.109
  C       91.238    -129.974     169.336
  O       91.856    -130.596     170.470
  C       90.222    -130.895     168.683
  O       90.765    -132.143     168.336
  C       89.129    -130.864     169.762
  N       87.838    -131.408     169.360
  C       87.720    -132.790     169.263
  O       88.628    -133.587     169.497
  N       86.491    -133.258     168.876
  C       85.394    -132.496     168.595
  O       84.311    -132.973     168.282
  C       85.582    -131.042     168.708
  C       86.772    -130.572     169.085
  O       88.662    -124.137     169.345
  O       89.298    -125.587     167.335
  H       89.187    -124.718     166.906
  H       90.970    -132.642     169.155
  H       86.386    -134.257     168.805
  H       84.735    -130.408     168.482
  H       86.939    -129.504     169.185
  H       89.476    -131.387     170.659
  H       89.863    -130.455     167.750
  H       92.011    -129.600     168.658
  H       90.673    -128.492     170.846
  H       91.109    -127.412     168.479
  H       89.440    -127.930     168.126
  P       93.292    -130.162     171.044
  C       94.201    -132.583     171.168
  O       93.887    -131.395     171.885
  O       93.278    -128.872     171.798
  O       94.249    -130.072     169.764
  H       94.974    -129.444     169.943
  H       94.585    -133.317     171.845
  H       94.937    -132.366     170.422
  H       93.317    -132.960     170.697

 6  7  8  9  10  11  12  13  14  15  16  27  31  32  33  34  35 0
 6-311+G(2d,p)
 ****
 36  37 0
 6-311+G(2d,p)
 ****
 1  2  3  4  5  17  18  19  20  21  22  23  24  25 0
 3-21G
 ****
 26  28  29  30  38  39  40  41  42  43  44  45 0
 3-21G
 ****


