%nproc=1
%NoSave
%Mem=1900MB
#P OB98/GEN NMR

erre ene a

0 1
  C     1402.403    -639.125    -383.979
  O     1401.492    -638.284    -383.291
  P     1400.441    -637.374    -384.088
  C     1398.556    -635.781    -383.290
  O     1399.354    -636.917    -382.981
  C     1397.261    -635.827    -382.485
  O     1396.490    -636.977    -382.894
  C     1397.460    -635.968    -380.971
  O     1397.845    -634.741    -380.397
  C     1396.093    -636.505    -380.555
  O     1395.144    -635.424    -380.468
  C     1395.707    -637.437    -381.748
  N     1395.970    -638.831    -381.455
  C     1394.864    -639.693    -381.459
  O     1393.713    -639.248    -381.700
  N     1395.042    -641.023    -381.227
  C     1396.242    -641.487    -381.012
  N     1396.389    -642.832    -380.858
  C     1397.434    -640.610    -380.946
  C     1397.233    -639.320    -381.191
  O     1399.841    -638.036    -385.310
  O     1401.211    -636.013    -384.402
  H     1395.410    -634.872    -379.698
  H     1401.710    -636.034    -385.251
  H     1398.422    -641.026    -380.732
  H     1398.063    -638.623    -381.176
  H     1394.658    -637.287    -382.022
  H     1396.083    -637.020    -379.594
  H     1398.214    -636.731    -380.756
  H     1396.670    -634.928    -382.712
  H     1395.565    -643.399    -381.093
  H     1398.312    -635.782    -384.349
  H     1397.295    -643.269    -380.962
  H     1399.133    -634.877    -383.051
  P     1398.294    -634.761    -378.857
  C     1399.993    -633.412    -377.424
  O     1399.469    -633.683    -378.713
  O     1399.014    -636.185    -378.693
  O     1397.152    -634.593    -377.887
  H     1398.417    -636.826    -378.274
  H     1400.913    -632.865    -377.533
  H     1400.195    -634.339    -376.875
  H     1399.271    -632.790    -376.863
  H     1403.014    -639.644    -383.270
  H     1403.024    -638.532    -384.618
  H     1401.859    -639.833    -384.568

 3  4  5  6  7  8  9  10  11  12  13  23  27  28  29  30  32 0
 6-311+G(2d,p)
 ****
 34  35 0
 6-311+G(2d,p)
 ****
 1  2  14  15  16  17  18  19  20  21  22  24  25  26 0
 3-21G
 ****
 31  33  36  37  38  39  40  41  42  43  44  45  46 0
 3-21G
 ****


