%nproc=1
%NoSave
%Mem=1900MB
#P OB98/GEN NMR

erre ene a

0 1
  C       20.783     157.157      39.950
  O       19.685     156.685      39.191
  P       19.227     157.555      37.924
  C       17.974     159.819      37.603
  O       18.307     158.746      38.474
  C       16.743     160.554      38.138
  O       15.559     159.744      37.963
  C       16.814     160.859      39.628
  O       17.632     161.987      39.887
  C       15.347     161.081      39.967
  O       14.944     162.424      39.654
  C       14.648     160.071      39.035
  N       14.193     158.878      39.742
  C       12.995     159.004      40.440
  O       12.357     160.056      40.489
  N       12.574     157.890      41.114
  C       13.246     156.705      41.204
  O       12.845     155.760      41.871
  C       14.521     156.639      40.470
  C       14.932     157.712      39.790
  O       18.196     156.600      37.158
  O       20.342     157.994      37.036
  H       15.055     162.529      38.688
  H       18.279     156.729      36.193
  H       11.697     157.953      41.605
  H       15.081     155.714      40.520
  H       15.875     157.689      39.255
  H       13.778     160.538      38.557
  H       15.141     160.925      41.030
  H       17.179     159.979      40.173
  H       16.613     161.478      37.561
  H       17.765     159.424      36.605
  H       18.827     160.501      37.532
  P       18.538     161.940      41.213
  C       17.964     161.996      43.761
  O       17.497     161.991      42.429
  O       19.205     163.396      41.170
  O       19.509     160.808      41.216
  H       18.613     164.059      40.776
  H       18.897     162.557      43.857
  H       18.121     160.967      44.093
  H       17.206     162.461      44.398
  H       20.975     156.482      40.758
  H       20.555     158.126      40.342
  H       21.649     157.220      39.324

 3  4  5  6  7  8  9  10  11  12  13  23  28  29  30  31  32 0
 6-311+G(2d,p)
 ****
 33  34 0
 6-311+G(2d,p)
 ****
 1  2  14  15  16  17  18  19  20  21  22  24  25  26 0
 3-21G
 ****
 27  35  36  37  38  39  40  41  42  43  44  45 0
 3-21G
 ****


