%nproc=1
%NoSave
%Mem=1900MB
#P OB98/GEN NMR

erre ene a

0 1
  C      -26.627    -120.367     251.655
  O      -26.045    -121.316     250.784
  H      -27.034    -119.547     251.057
  H      -25.870    -119.961     252.331
  H      -27.440    -120.815     252.232
  P      -25.507    -122.696     251.394
  C      -23.907    -123.130     253.370
  O      -24.168    -122.358     252.206
  C      -22.713    -122.546     254.123
  O      -23.071    -121.279     254.718
  C      -22.222    -123.418     255.271
  O      -21.473    -124.518     254.793
  C      -21.425    -122.408     256.079
  O      -20.119    -122.215     255.515
  C      -22.287    -121.135     255.925
  N      -23.143    -120.884     257.084
  C      -22.498    -120.533     258.266
  O      -21.274    -120.462     258.372
  N      -23.313    -120.294     259.341
  C      -24.664    -120.479     259.378
  O      -25.337    -120.336     260.393
  C      -25.289    -120.873     258.107
  C      -24.512    -121.054     257.037
  O      -25.392    -123.829     250.429
  O      -26.557    -123.027     252.559
  H      -19.691    -123.093     255.507
  H      -27.152    -123.742     252.265
  H      -22.863    -120.052     260.210
  H      -26.360    -121.015     258.094
  H      -24.953    -121.352     256.094
  H      -21.646    -120.256     255.778
  H      -21.286    -122.723     257.113
  H      -23.072    -123.762     255.873
  H      -21.907    -122.363     253.399
  H      -23.679    -124.158     253.066
  H      -24.801    -123.136     254.002
  P      -21.302    -125.823     255.703
  C      -20.540    -126.246     258.121
  O      -20.401    -125.421     256.969
  O      -20.863    -127.055     254.982
  O      -22.753    -126.031     256.348
  H      -23.105    -126.900     256.075
  H      -19.897    -125.887     258.897
  H      -20.273    -127.252     257.874
  H      -21.555    -126.219     258.458

 6  7  8  9  10  11  12  13  14  15  16  26  31  32  33  34  35 0
 6-311+G(2d,p)
 ****
 36  37 0
 6-311+G(2d,p)
 ****
 1  2  3  4  5  17  18  19  20  21  22  23  24  25 0
 3-21G
 ****
 27  28  29  30  38  39  40  41  42  43  44  45 0
 3-21G
 ****


