%nproc=1
%NoSave
%Mem=1900MB
#P OB98/GEN NMR

erre ene a

0 1
  C       92.077     162.969     392.718
  O       92.232     163.006     394.123
  P       92.429     164.397     394.888
  C       89.972     164.435     395.601
  O       91.005     165.138     394.923
  C       89.150     165.373     396.485
  O       88.046     164.625     397.072
  C       89.929     166.020     397.637
  O       89.375     167.327     397.832
  C       89.568     165.135     398.822
  O       89.777     165.777     400.075
  C       88.112     164.830     398.501
  N       83.950     162.174     399.826
  C       84.095     163.353     399.184
  N       85.239     164.005     398.888
  C       86.306     163.321     399.332
  C       86.312     162.126     400.032
  C       85.058     161.534     400.269
  N       84.891     160.318     400.895
  N       87.604     161.769     400.369
  C       88.358     162.731     399.877
  N       87.623     163.653     399.186
  O       93.558     165.243     394.393
  O       92.655     163.973     396.412
  H       90.618     166.267     400.030
  H       93.600     164.083     396.655
  H       83.176     163.827     398.850
  H       89.433     162.805     399.988
  H       87.449     165.666     398.756
  H       90.182     164.225     398.800
  H       91.008     166.079     397.467
  H       88.703     166.143     395.842
  H       90.434     163.669     396.227
  H       83.967     159.924     400.890
  H       85.697     159.700     400.991
  H       89.320     163.936     394.870
  P       90.352     168.586     398.023
  C       89.999     169.143     395.548
  O       90.949     168.921     396.578
  O       91.355     168.456     399.119
  O       89.339     169.804     398.286
  H       89.827     170.549     398.690
  H       89.645     168.182     395.169
  H       90.479     169.697     394.732
  H       89.150     169.726     395.916
  H       91.959     161.955     392.399
  H       92.943     163.391     392.252
  H       91.212     163.533     392.440

 3  4  5  6  7  8  9  10  11  12  22  25  29  30  31  32 0
 6-311+G(2d,p)
 ****
 33  36  37 0
 6-311+G(2d,p)
 ****
 1  2  13  14  15  16  17  18  19  20  21  23  24  26 0
 3-21G
 ****
 27  28  34  35  38  39  40  41  42  43  44  45  46  47  48 0
 3-21G
 ****


