%nproc=1
%NoSave
%Mem=1900MB
#P OB98/GEN NMR

erre ene a

0 1
  C     -233.446    -889.280     585.312
  O     -233.350    -890.370     586.196
  P     -232.326    -890.440     587.415
  C     -229.796    -891.010     587.768
  O     -230.879    -890.860     586.861
  C     -228.987    -892.270     587.476
  O     -229.863    -893.430     587.676
  C     -228.541    -892.330     586.004
  O     -227.215    -892.810     585.820
  C     -229.653    -893.110     585.319
  O     -229.284    -893.700     584.070
  C     -230.056    -894.110     586.428
  N     -233.109    -898.080     585.477
  C     -231.740    -898.070     585.681
  N     -231.075    -899.210     585.410
  N     -231.076    -896.990     586.077
  C     -231.848    -895.880     586.171
  C     -233.213    -895.790     585.995
  C     -233.933    -896.970     585.604
  O     -235.132    -897.010     585.300
  N     -233.641    -894.490     586.146
  C     -232.544    -893.790     586.354
  N     -231.415    -894.600     586.352
  O     -232.818    -891.110     588.664
  O     -232.123    -888.860     587.750
  H     -229.194    -892.980     583.434
  H     -231.991    -888.800     588.734
  H     -233.544    -898.910     585.093
  H     -232.485    -892.710     586.495
  H     -229.417    -894.990     586.412
  H     -230.479    -892.430     585.121
  H     -231.529    -900.000     584.967
  H     -228.515    -891.320     585.569
  H     -230.066    -899.160     585.310
  H     -228.146    -892.350     588.173
  H     -230.238    -891.060     588.779
  H     -229.149    -890.120     587.737
  P     -226.115    -892.350     584.727
  C     -224.877    -893.390     582.748
  O     -225.932    -893.540     583.663
  O     -224.717    -892.360     585.513
  O     -226.374    -891.000     584.119
  H     -224.182    -891.590     585.219
  H     -225.023    -894.090     581.898
  H     -223.926    -893.620     583.230
  H     -224.870    -892.370     582.323
  H     -234.206    -889.477     584.584
  H     -232.507    -889.137     584.818
  H     -233.698    -888.397     585.861

 3  4  5  6  7  8  9  10  11  12  23  26  30  31 0
 6-311+G(2d,p)
 ****
 33  35  36  37  38 0
 6-311+G(2d,p)
 ****
 1  2  13  14  15  16  17  18  19  20  21  22  24  25 0
 3-21G
 ****
 27  28  29  32  34  39  40  41  42  43  44  45  46  47  48  49 0
 3-21G
 ****


