%nproc=1
%NoSave
%Mem=1900MB
#P OB98/GEN NMR

erre ene a

0 1
  C     -162.615      21.731     230.512
  O     -161.695      22.720     230.085
  P     -160.793      22.420     228.794
  C     -162.670      22.578     226.963
  O     -161.768      21.771     227.698
  C     -162.974      21.934     225.607
  O     -161.776      21.979     224.784
  C     -163.422      20.469     225.686
  O     -164.385      20.262     224.645
  C     -162.142      19.709     225.386
  O     -162.383      18.390     224.923
  C     -161.498      20.634     224.348
  N     -160.057      20.430     224.201
  C     -159.594      19.896     223.004
  O     -160.325      19.566     222.073
  N     -158.237      19.721     222.917
  C     -157.329      19.958     223.907
  O     -156.126      19.766     223.779
  C     -157.881      20.476     225.166
  C     -159.194      20.694     225.249
  O     -159.912      21.191     229.309
  O     -160.014      23.599     228.319
  H     -160.401      20.595     229.902
  H     -163.004      18.442     224.173
  H     -157.875      19.369     222.043
  H     -157.194      20.664     225.981
  H     -159.625      21.075     226.167
  H     -161.987      20.505     223.375
  H     -161.535      19.645     226.296
  H     -163.862      20.216     226.654
  H     -163.737      22.540     225.102
  H     -162.226      23.562     226.798
  H     -163.588      22.715     227.544
  P     -165.558      19.189     224.897
  C     -167.409      20.954     225.451
  O     -166.622      19.867     225.881
  O     -164.793      18.155     225.856
  O     -166.097      18.544     223.663
  H     -164.322      18.592     226.584
  H     -168.273      21.047     226.114
  H     -167.767      20.809     224.429
  H     -166.823      21.876     225.506
  H     -163.137      22.080     231.379
  H     -162.087      20.832     230.751
  H     -163.317      21.535     229.728

 3  4  5  6  7  8  9  10  11  12  13  24  28  29  30  31  32 0
 6-311+G(2d,p)
 ****
 33  34 0
 6-311+G(2d,p)
 ****
 1  2  14  15  16  17  18  19  20  21  22  23  25  26  27 0
 3-21G
 ****
 35  36  37  38  39  40  41  42  43  44  45 0
 3-21G
 ****


