%nproc=1
%NoSave
%Mem=1900MB
#P OB98/GEN NMR

erre ene a

0 1
  C      139.513      28.420       4.456
  O      138.312      28.380       3.685
  P      137.906      27.002       2.976
  C      137.090      28.182       0.831
  O      136.754      27.301       1.898
  C      135.849      28.963       0.364
  O      134.832      28.017      -0.060
  C      135.188      29.828       1.443
  O      135.642      31.170       1.605
  C      133.756      29.913       0.919
  O      133.660      30.955      -0.072
  C      133.531      28.557       0.258
  N      130.035      24.823       0.292
  C      130.566      25.554      -0.711
  N      131.492      26.531      -0.636
  C      131.883      26.719       0.634
  C      131.434      26.049       1.759
  C      130.460      25.058       1.555
  N      129.910      24.321       2.578
  N      132.061      26.524       2.892
  C      132.861      27.477       2.458
  N      132.800      27.625       1.100
  O      137.649      25.849       3.886
  O      139.177      26.711       2.038
  H      132.737      30.953      -0.386
  H      139.347      25.749       2.028
  H      130.195      25.327      -1.709
  H      133.497      28.082       3.088
  H      132.975      28.639      -0.682
  H      133.038      30.164       1.706
  H      135.198      29.318       2.413
  H      136.119      29.583      -0.499
  H      137.496      27.606      -0.004
  H      129.185      23.661       2.352
  H      130.173      24.523       3.533
  H      137.888      28.835       1.182
  P      136.751      31.550       2.695
  C      135.987      33.982       3.281
  O      136.905      33.142       2.616
  O      138.031      30.797       2.584
  O      135.972      31.331       4.075
  H      135.257      31.970       4.237
  H      136.383      35.001       3.285
  H      135.840      33.656       4.313
  H      135.031      33.977       2.750
  H      139.644      29.402       4.861
  H      140.347      28.178       3.830
  H      139.448      27.710       5.254

 3  4  5  6  7  8  9  10  11  12  22  25  29  30  31  32 0
 6-311+G(2d,p)
 ****
 33  36  37 0
 6-311+G(2d,p)
 ****
 1  2  13  14  15  16  17  18  19  20  21  23  24  26 0
 3-21G
 ****
 27  28  34  35  38  39  40  41  42  43  44  45  46  47  48 0
 3-21G
 ****


