%nproc=1
%NoSave
%Mem=1900MB
#P OB98/GEN NMR

erre ene a

0 1
  C      586.343     361.002      72.576
  O      586.260     362.151      73.396
  H      585.450     360.958      71.946
  H      586.378     360.100      73.192
  H      587.224     361.050      71.930
  P      587.495     362.511      74.352
  C      587.443     364.962      73.579
  O      588.225     363.784      73.701
  C      588.293     366.121      73.057
  O      589.189     366.553      74.114
  C      589.143     365.757      71.836
  O      589.173     366.882      70.958
  C      590.522     365.530      72.422
  O      591.561     365.766      71.473
  C      590.533     366.513      73.592
  N      595.142     367.330      75.490
  C      594.465     367.985      74.481
  N      595.117     368.992      73.863
  N      593.251     367.676      74.105
  C      592.711     366.655      74.817
  C      593.279     365.932      75.836
  C      594.627     366.274      76.233
  O      595.282     365.723      77.112
  N      592.423     364.959      76.287
  C      591.341     365.095      75.544
  N      591.470     366.105      74.628
  O      588.408     361.372      74.675
  O      586.808     363.112      75.664
  H      591.477     366.698      71.181
  H      586.771     362.443      76.372
  H      596.078     367.605      75.733
  H      590.448     364.492      75.616
  H      590.818     367.526      73.284
  H      590.609     364.496      72.776
  H      596.046     369.298      74.111
  H      588.771     364.876      71.303
  H      594.632     369.502      73.134
  H      587.629     366.966      72.838
  H      587.044     365.213      74.570
  H      586.604     364.774      72.899
  P      588.135     366.936      69.734
  C      587.295     369.354      70.017
  O      586.969     367.970      70.113
  O      587.671     365.612      69.223
  O      588.956     367.735      68.611
  H      588.658     367.430      67.728
  H      586.444     369.941      70.293
  H      587.577     369.585      69.011
  H      588.109     369.575      70.675

 6  7  8  9  10  11  12  13  14  15  26  29  33  34 0
 6-311+G(2d,p)
 ****
 36  38  39  40  41 0
 6-311+G(2d,p)
 ****
 1  2  3  4  5  16  17  18  19  20  21  22  23  24  25 0
 3-21G
 ****
 27  28  30  31  32  35  37  42  43  44  45  46  47 0
 3-21G
 ****
 48  49 0
 3-21G
 ****


