%nproc=1
%NoSave
%Mem=1900MB
#P OB98/GEN NMR

erre ene a

0 1
  C     -201.992     342.400     -41.643
  O     -202.873     342.217     -40.548
  P     -202.535     342.947     -39.163
  C     -203.245     345.299     -40.019
  O     -202.210     344.484     -39.491
  C     -203.522     346.489     -39.092
  O     -202.267     347.180     -38.813
  C     -204.494     347.523     -39.676
  O     -205.250     348.070     -38.581
  C     -203.555     348.585     -40.224
  O     -204.181     349.843     -40.413
  C     -202.472     348.570     -39.140
  N     -201.229     349.212     -39.566
  C     -200.730     350.240     -38.769
  O     -201.274     350.631     -37.734
  N     -199.599     350.861     -39.226
  C     -198.984     350.624     -40.422
  O     -198.045     351.298     -40.830
  C     -199.552     349.535     -41.226
  C     -200.630     348.884     -40.771
  O     -201.113     342.331     -38.762
  O     -203.556     342.745     -38.087
  H     -204.446     350.176     -39.537
  H     -201.220     341.633     -38.093
  H     -199.221     351.599     -38.656
  H     -199.073     349.305     -42.173
  H     -201.082     348.084     -41.350
  H     -202.836     349.062     -38.228
  H     -203.158     348.255     -41.190
  H     -205.166     347.115     -40.438
  H     -203.901     346.102     -38.139
  H     -204.155     344.705     -40.121
  H     -202.963     345.651     -41.019
  P     -206.716     348.649     -38.899
  C     -208.025     346.424     -38.503
  O     -207.604     347.419     -39.411
  O     -206.422     349.496     -40.230
  O     -207.289     349.471     -37.783
  H     -205.843     349.023     -40.851
  H     -208.236     346.840     -37.511
  H     -207.255     345.657     -38.415
  H     -208.941     345.957     -38.888
  H     -202.354     341.852     -42.488
  H     -201.017     342.046     -41.379
  H     -201.940     343.440     -41.889

 3  4  5  6  7  8  9  10  11  12  13  23  28  29  30  31  32 0
 6-311+G(2d,p)
 ****
 33  34 0
 6-311+G(2d,p)
 ****
 1  2  14  15  16  17  18  19  20  21  22  24  25  26 0
 3-21G
 ****
 27  35  36  37  38  39  40  41  42  43  44  45 0
 3-21G
 ****


