%nproc=1
%NoSave
%Mem=1900MB
#P OB98/GEN NMR

erre ene a

0 1
  C       31.025      43.707     -19.210
  O       30.441      42.513     -19.697
  P       29.593      42.531     -21.054
  C       27.360      41.624     -20.072
  O       28.467      41.399     -20.917
  C       26.493      40.365     -19.947
  O       25.337      40.699     -19.141
  C       25.942      39.832     -21.265
  O       25.530      38.478     -21.072
  C       24.727      40.708     -21.471
  O       23.793      40.132     -22.378
  C       24.210      40.909     -20.023
  N       23.652      42.259     -19.830
  C       22.284      42.347     -19.594
  O       21.561      41.360     -19.469
  N       21.757      43.610     -19.592
  C       22.453      44.754     -19.847
  O       21.929      45.821     -20.144
  C       23.918      44.619     -19.848
  C       24.444      43.392     -19.866
  O       30.618      41.923     -22.121
  O       29.094      43.873     -21.465
  H       23.080      40.799     -22.515
  H       31.068      42.642     -22.604
  H       20.746      43.664     -19.566
  H       24.513      45.520     -19.897
  H       25.521      43.260     -19.921
  H       23.428      40.181     -19.774
  H       25.046      41.670     -21.891
  H       26.641      39.900     -22.104
  H       27.058      39.586     -19.421
  H       26.772      42.459     -20.463
  H       27.698      41.924     -19.074
  P       26.076      37.374     -22.098
  C       24.137      37.249     -23.775
  O       24.785      36.626     -22.685
  O       27.157      36.482     -21.586
  O       26.571      38.253     -23.344
  H       27.184      37.730     -23.893
  H       23.661      36.479     -24.389
  H       24.842      37.810     -24.394
  H       23.367      37.926     -23.397
  H       31.549      43.502     -18.300
  H       30.258      44.430     -19.025
  H       31.710      44.091     -19.937

 3  4  5  6  7  8  9  10  11  12  13  23  28  29  30  31  32 0
 6-311+G(2d,p)
 ****
 33  34 0
 6-311+G(2d,p)
 ****
 1  2  14  15  16  17  18  19  20  21  22  24  25  26  27 0
 3-21G
 ****
 35  36  37  38  39  40  41  42  43  44  45 0
 3-21G
 ****


