%nproc=1
%NoSave
%Mem=1900MB
#P OB98/GEN NMR

erre ene a

0 1
  C      289.371     -80.356     541.002
  O      289.545     -81.396     541.950
  H      290.193     -80.397     540.281
  H      289.387     -79.379     541.492
  H      288.427     -80.485     540.467
  P      288.548     -81.452     543.207
  C      287.929     -83.914     542.694
  O      287.463     -82.574     542.842
  C      287.638     -84.413     541.283
  O      288.293     -83.573     540.308
  C      288.154     -85.825     541.027
  O      287.319     -86.788     541.640
  C      288.186     -85.848     539.509
  O      286.883     -86.088     538.967
  C      288.661     -84.415     539.190
  N      290.101     -84.336     538.932
  C      290.484     -83.537     537.849
  O      289.643     -82.942     537.177
  N      291.823     -83.456     537.540
  C      292.692     -84.098     538.256
  N      294.001     -83.973     537.897
  C      292.327     -84.938     539.413
  C      291.026     -85.018     539.689
  O      287.960     -80.148     543.659
  O      289.427     -82.147     544.352
  H      286.587     -86.941     539.346
  H      289.910     -81.473     544.865
  H      293.092     -85.451     539.986
  H      290.675     -85.614     540.522
  H      288.134     -84.021     538.306
  H      288.847     -86.628     539.135
  H      289.184     -85.920     541.395
  H      286.557     -84.352     541.105
  H      294.204     -83.394     537.094
  H      287.397     -84.525     543.428
  H      294.770     -84.351     538.434
  H      289.004     -83.971     542.906
  P      287.916     -87.838     542.697
  C      285.842     -87.945     544.227
  O      287.190     -87.503     544.090
  O      289.409     -87.905     542.751
  O      287.227     -89.214     542.257
  H      287.639     -89.576     541.430
  H      285.471     -87.665     545.191
  H      285.804     -89.010     544.126
  H      285.239     -87.493     543.467

 6  7  8  9  10  11  12  13  14  15  16  26  30  31  32  33  35 0
 6-311+G(2d,p)
 ****
 37  38 0
 6-311+G(2d,p)
 ****
 1  2  3  4  5  17  18  19  20  21  22  23  24  25 0
 3-21G
 ****
 27  28  29  34  36  39  40  41  42  43  44  45  46 0
 3-21G
 ****


