%nproc=1
%NoSave
%Mem=1900MB
#P OB98/GEN NMR

erre ene a

0 1
  C      -93.141     323.762     -38.326
  O      -93.581     323.039     -39.484
  P      -94.885     322.120     -39.344
  C      -93.382     319.999     -39.261
  O      -94.448     320.732     -38.674
  C      -93.259     318.621     -38.605
  O      -94.516     317.908     -38.625
  C      -92.251     317.706     -39.289
  O      -90.924     317.966     -38.854
  C      -92.703     316.345     -38.784
  O      -92.200     316.128     -37.448
  C      -94.229     316.495     -38.768
  N      -95.040     312.369     -41.578
  C      -94.349     312.513     -40.390
  N      -93.805     311.394     -39.871
  N      -94.211     313.655     -39.767
  C      -94.825     314.687     -40.394
  C      -95.533     314.669     -41.573
  C      -95.669     313.402     -42.258
  O      -96.254     313.217     -43.323
  N      -96.000     315.916     -41.894
  C      -95.594     316.684     -40.902
  N      -94.861     315.988     -39.973
  O      -95.188     321.701     -40.861
  O      -96.055     322.805     -38.718
  H      -92.533     315.253     -37.167
  H      -96.138     321.527     -40.972
  H      -95.112     311.468     -42.018
  H      -95.804     317.742     -40.812
  H      -94.692     315.978     -37.918
  H      -92.324     315.527     -39.401
  H      -93.916     310.476     -40.269
  H      -92.348     317.758     -40.381
  H      -93.325     311.475     -38.980
  H      -92.961     318.767     -37.558
  H      -92.440     320.546     -39.152
  H      -93.555     319.919     -40.337
  P      -89.894     318.583     -39.919
  C      -88.788     316.269     -40.319
  O      -89.469     317.371     -40.877
  O      -88.589     318.856     -39.033
  O      -90.370     319.822     -40.599
  H      -88.106     319.628     -39.382
  H      -88.727     315.479     -41.072
  H      -89.326     315.880     -39.448
  H      -87.775     316.561     -40.030
  H      -92.266     324.327     -38.570
  H      -92.913     323.072     -37.540
  H      -93.916     324.426     -38.004

 3  4  5  6  7  8  9  10  11  12  23  26  30  31 0
 6-311+G(2d,p)
 ****
 33  35  36  37  38 0
 6-311+G(2d,p)
 ****
 1  2  13  14  15  16  17  18  19  20  21  22  24  25 0
 3-21G
 ****
 27  28  29  32  34  39  40  41  42  43  44  45  46  47  48  49 0
 3-21G
 ****


