%nproc=1
%NoSave
%Mem=1900MB
#P OB98/GEN NMR

erre ene a

0 1
  C       30.489      41.177     -18.248
  O       29.658      41.029     -19.387
  P       28.940      42.349     -19.955
  C       30.180      42.111     -22.226
  O       29.905      42.933     -21.097
  C       30.082      42.905     -23.529
  O       30.529      42.068     -24.623
  C       28.672      43.399     -23.855
  O       28.788      44.689     -24.458
  C       28.184      42.411     -24.898
  O       27.164      42.974     -25.721
  C       29.494      42.074     -25.628
  N       29.422      40.797     -26.329
  C       29.085      40.839     -27.685
  O       28.788      41.911     -28.213
  N       29.041      39.665     -28.393
  C       29.212      38.537     -27.776
  N       29.162      37.401     -28.522
  C       29.447      38.441     -26.322
  C       29.561      39.598     -25.673
  O       29.112      43.394     -18.757
  O       27.511      42.161     -20.343
  H       26.369      43.121     -25.162
  H       28.356      44.010     -18.722
  H       29.546      37.475     -25.851
  H       29.756      39.626     -24.609
  H       29.743      42.858     -26.355
  H       27.779      41.519     -24.406
  H       28.028      43.459     -22.974
  H       30.775      43.753     -23.466
  H       28.984      37.492     -29.514
  H       29.445      41.302     -22.263
  H       29.283      36.478     -28.127
  H       31.173      41.666     -22.117
  P       27.542      45.689     -24.321
  C       28.499      46.299     -22.019
  O       27.353      45.901     -22.743
  O       26.313      44.714     -24.662
  O       27.516      46.910     -25.177
  H       25.484      45.225     -24.675
  H       28.201      46.539     -20.995
  H       28.950      47.186     -22.471
  H       29.225      45.481     -21.991
  H       30.899      40.226     -17.980
  H       29.911      41.559     -17.432
  H       31.283      41.858     -18.472

 3  4  5  6  7  8  9  10  11  12  13  21  23  27  28  29  30  32 0
 6-311+G(2d,p)
 ****
 34  35 0
 6-311+G(2d,p)
 ****
 1  2  14  15  16  17  18  19  20  22  24  25  26 0
 3-21G
 ****
 31  33  36  37  38  39  40  41  42  43  44  45  46 0
 3-21G
 ****


