%nproc=1
%NoSave
%Mem=1900MB
#P OB98/GEN NMR

erre ene a

0 1
  C      160.547    -359.979    -250.530
  O      161.047    -360.749    -249.456
  H      160.895    -358.949    -250.417
  H      159.453    -359.982    -250.530
  H      160.920    -360.367    -251.486
  P      160.626    -362.290    -249.351
  C      158.723    -363.601    -248.195
  O      159.184    -362.326    -248.641
  C      157.514    -363.426    -247.267
  O      158.012    -363.038    -245.959
  C      156.547    -362.336    -247.762
  O      155.196    -362.791    -247.863
  C      156.827    -361.167    -246.823
  O      155.746    -360.279    -246.653
  C      157.292    -361.864    -245.537
  N      158.138    -361.027    -244.686
  C      157.492    -360.138    -243.825
  O      156.273    -360.024    -243.701
  N      158.319    -359.362    -243.051
  C      159.683    -359.368    -243.073
  O      160.368    -358.652    -242.350
  C      160.302    -360.305    -244.019
  C      159.517    -361.083    -244.769
  O      161.646    -363.202    -248.747
  O      160.289    -362.704    -250.862
  H      154.987    -360.795    -246.312
  H      161.030    -363.217    -251.233
  H      157.863    -358.723    -242.417
  H      161.383    -360.334    -244.068
  H      159.942    -361.783    -245.480
  H      156.437    -362.185    -244.940
  H      157.656    -360.588    -247.238
  H      156.788    -362.034    -248.791
  H      157.015    -364.398    -247.153
  H      159.546    -364.088    -247.662
  H      158.443    -364.213    -249.062
  P      154.540    -363.377    -249.194
  C      153.602    -362.363    -251.434
  O      154.305    -362.159    -250.211
  O      153.391    -364.310    -248.993
  O      155.738    -364.215    -249.874
  H      155.324    -364.973    -250.337
  H      153.548    -361.440    -251.972
  H      152.613    -362.711    -251.223
  H      154.118    -363.091    -252.025

 6  7  8  9  10  11  12  13  14  15  16  26  31  32  33  34  35 0
 6-311+G(2d,p)
 ****
 36  37 0
 6-311+G(2d,p)
 ****
 1  2  3  4  5  17  18  19  20  21  22  23  24  25 0
 3-21G
 ****
 27  28  29  30  38  39  40  41  42  43  44  45 0
 3-21G
 ****


