%nproc=1
%NoSave
%Mem=1900MB
#P OB98/GEN NMR

erre ene a

0 1
  C     -437.273    -204.072     331.333
  O     -437.578    -203.155     332.367
  H     -438.128    -204.130     330.654
  H     -437.084    -205.064     331.749
  H     -436.401    -203.725     330.771
  P     -436.457    -202.950     333.497
  C     -435.939    -200.588     332.573
  O     -435.440    -201.886     332.859
  C     -435.501    -199.596     333.647
  O     -436.030    -199.981     334.927
  C     -433.990    -199.489     333.824
  O     -433.441    -198.602     332.863
  C     -433.903    -198.910     335.228
  O     -434.120    -197.486     335.178
  C     -435.077    -199.591     335.950
  N     -432.751    -201.312     340.190
  C     -432.768    -200.092     339.611
  N     -433.361    -199.720     338.455
  C     -433.999    -200.758     337.892
  C     -434.068    -202.059     338.369
  C     -433.410    -202.322     339.581
  N     -433.395    -203.567     340.170
  N     -434.805    -202.856     337.518
  C     -435.227    -202.036     336.578
  N     -434.737    -200.762     336.738
  O     -435.850    -204.200     334.041
  O     -437.259    -202.064     334.564
  H     -434.208    -197.181     336.099
  H     -437.807    -201.398     334.111
  H     -432.232    -199.313     340.141
  H     -435.903    -202.304     335.773
  H     -435.592    -198.902     336.630
  H     -432.927    -199.067     335.690
  H     -433.509    -200.473     333.810
  H     -435.935    -198.618     333.398
  H     -437.035    -200.608     332.516
  H     -432.745    -203.713     340.926
  H     -433.773    -204.344     339.647
  H     -435.548    -200.290     331.597
  P     -431.903    -198.709     332.423
  C     -432.530    -199.798     330.180
  O     -431.843    -199.955     331.419
  O     -430.937    -198.741     333.556
  O     -431.681    -197.457     331.455
  H     -430.726    -197.280     331.345
  H     -432.421    -200.688     329.596
  H     -432.117    -198.968     329.646
  H     -433.568    -199.620     330.368

 6  7  8  9  10  11  12  13  14  15  25  28  32  33  34  35 0
 6-311+G(2d,p)
 ****
 36  39  40 0
 6-311+G(2d,p)
 ****
 1  2  3  4  5  16  17  18  19  20  21  22  23  24 0
 3-21G
 ****
 26  27  29  30  31  37  38  41  42  43  44  45  46  47 0
 3-21G
 ****
 48 0
 3-21G
 ****


