%nproc=1
%NoSave
%Mem=1900MB
#P OB98/GEN NMR

erre ene a

0 1
  C      128.773    -157.952    -240.142
  O      127.698    -158.824    -240.530
  P      127.284    -158.914    -242.081
  C      127.627    -161.436    -242.690
  O      128.113    -160.102    -242.767
  C      128.188    -162.269    -243.847
  O      127.914    -161.624    -245.113
  C      129.698    -162.452    -243.813
  O      130.091    -163.423    -242.856
  C      129.983    -162.871    -245.251
  O      129.742    -164.276    -245.436
  C      128.949    -162.036    -246.035
  N      129.547    -160.889    -246.709
  C      129.466    -160.875    -248.097
  O      128.977    -161.794    -248.752
  N      130.003    -159.779    -248.716
  C      130.657    -158.748    -248.101
  O      131.134    -157.802    -248.715
  C      130.785    -158.859    -246.641
  C      130.238    -159.907    -246.023
  O      128.001    -157.615    -242.691
  O      125.817    -158.890    -242.364
  H      130.463    -164.745    -244.971
  H      127.503    -157.306    -243.472
  H      129.927    -159.735    -249.721
  H      131.317    -158.075    -246.118
  H      130.322    -160.003    -244.945
  H      128.451    -162.660    -246.785
  H      131.020    -162.680    -245.544
  H      130.188    -161.493    -243.616
  H      127.679    -163.241    -243.844
  H      126.536    -161.424    -242.754
  H      127.919    -161.867    -241.728
  P      131.660    -163.505    -242.519
  C      130.937    -163.284    -240.016
  O      131.809    -162.881    -241.050
  O      132.243    -162.387    -243.507
  O      132.230    -164.869    -242.716
  H      131.623    -161.649    -243.632
  H      130.641    -164.330    -240.123
  H      130.044    -162.651    -240.030
  H      131.447    -163.157    -239.059
  H      128.917    -158.012    -239.083
  H      128.531    -156.945    -240.413
  H      129.671    -158.249    -240.641

 3  4  5  6  7  8  9  10  11  12  13  23  28  29  30  31  32 0
 6-311+G(2d,p)
 ****
 33  34 0
 6-311+G(2d,p)
 ****
 1  2  14  15  16  17  18  19  20  21  22  24  25  26 0
 3-21G
 ****
 27  35  36  37  38  39  40  41  42  43  44  45 0
 3-21G
 ****


