%nproc=1
%NoSave
%Mem=1900MB
#P OB98/GEN NMR

erre ene a

0 1
  C       66.745      65.409     413.997
  O       65.453      64.835     414.022
  H       67.344      64.956     414.792
  H       66.691      66.487     414.172
  H       67.234      65.213     413.039
  P       64.379      65.341     412.946
  C       63.676      67.163     414.633
  O       64.088      66.876     413.304
  C       64.246      68.505     415.080
  O       65.674      68.417     415.247
  C       63.995      69.645     414.091
  O       62.683      70.159     414.248
  C       65.077      70.623     414.520
  O       64.673      71.296     415.727
  C       66.254      69.675     414.808
  N       70.912      68.342     413.314
  C       70.419      68.574     414.584
  N       71.310      68.479     415.594
  N       69.175      68.892     414.834
  C       68.423      69.019     413.720
  C       68.800      68.832     412.408
  C       70.162      68.428     412.145
  O       70.636      68.194     411.037
  N       67.773      69.118     411.545
  C       66.767      69.439     412.333
  N       67.114      69.410     413.664
  O       63.142      64.509     412.802
  O       65.208      65.429     411.580
  H       63.912      71.858     415.493
  H       65.138      64.601     411.072
  H       71.886      68.119     413.181
  H       65.772      69.698     411.994
  H       66.897      70.043     415.615
  H       65.285      71.388     413.772
  H       72.309      68.523     415.434
  H       64.193      69.338     413.059
  H       70.982      68.694     416.528
  H       63.821      68.742     416.064
  H       64.046      66.358     415.277
  H       62.583      67.190     414.697
  P       61.587      70.001     413.084
  C       61.524      72.577     412.914
  O       61.698      71.348     412.222
  O       60.211      69.676     413.560
  O       62.203      68.906     412.100
  H       61.969      67.976     412.341
  H       61.622      73.391     412.226
  H       62.268      72.664     413.678
  H       60.551      72.601     413.359

 6  7  8  9  10  11  12  13  14  15  26  29  33  34 0
 6-311+G(2d,p)
 ****
 36  38  39  40  41 0
 6-311+G(2d,p)
 ****
 1  2  3  4  5  16  17  18  19  20  21  22  23  24  25 0
 3-21G
 ****
 27  28  30  31  32  35  37  42  43  44  45  46  47 0
 3-21G
 ****
 48  49 0
 3-21G
 ****


