%nproc=1
%NoSave
%Mem=1900MB
#P OB98/GEN NMR

erre ene a

0 1
  C      124.060    -306.615     -67.731
  O      123.841    -307.898     -67.140
  P      124.128    -309.240     -67.971
  C      126.120    -310.088     -66.606
  O      125.693    -309.593     -67.871
  C      127.378    -310.961     -66.687
  O      127.174    -312.086     -67.575
  C      128.637    -310.232     -67.168
  O      129.731    -310.843     -66.477
  C      128.667    -310.579     -68.643
  O      129.948    -310.383     -69.227
  C      128.170    -312.030     -68.612
  N      127.638    -312.463     -69.901
  C      128.474    -313.245     -70.698
  O      129.625    -313.494     -70.337
  N      128.007    -313.685     -71.914
  C      126.844    -313.295     -72.332
  N      126.444    -313.744     -73.554
  C      125.963    -312.397     -71.559
  C      126.416    -312.035     -70.361
  O      123.579    -309.244     -69.361
  O      123.436    -310.389     -67.092
  H      130.193    -309.439     -69.122
  H      123.135    -311.107     -67.682
  H      125.013    -312.077     -71.961
  H      125.841    -311.382     -69.715
  H      128.983    -312.711     -68.329
  H      127.954    -309.946     -69.186
  H      128.612    -309.156     -66.985
  H      127.550    -311.375     -65.687
  H      127.089    -314.336     -74.063
  H      125.305    -310.675     -66.172
  H      125.614    -313.412     -74.021
  H      126.298    -309.241     -65.936
  P      129.714    -311.074     -64.894
  C      129.689    -313.583     -64.397
  O      128.904    -312.429     -64.631
  O      129.245    -309.903     -64.094
  O      131.223    -311.466     -64.518
  H      131.357    -311.350     -63.561
  H      129.044    -314.380     -64.023
  H      130.468    -313.379     -63.652
  H      130.156    -313.908     -65.330
  H      123.814    -305.850     -67.025
  H      123.442    -306.512     -68.599
  H      125.088    -306.523     -68.012

 3  4  5  6  7  8  9  10  11  12  13  23  27  28  29  30  32 0
 6-311+G(2d,p)
 ****
 34  35 0
 6-311+G(2d,p)
 ****
 1  2  14  15  16  17  18  19  20  21  22  24  25  26 0
 3-21G
 ****
 31  33  36  37  38  39  40  41  42  43  44  45  46 0
 3-21G
 ****


