%nproc=1
%NoSave
%Mem=1900MB
#P OB98/GEN NMR

erre ene a

0 1
  C     -217.374     716.690    -602.461
  O     -215.983     716.493    -602.641
  H     -217.711     716.073    -601.623
  H     -217.934     716.391    -603.354
  H     -217.581     717.739    -602.232
  P     -215.283     717.175    -603.913
  C     -215.542     719.398    -602.617
  O     -215.694     718.718    -603.858
  C     -214.681     720.641    -602.795
  O     -213.303     720.265    -602.993
  C     -215.059     721.461    -604.025
  O     -216.239     722.206    -603.780
  C     -213.803     722.279    -604.225
  O     -213.751     723.396    -603.328
  C     -212.704     721.246    -603.883
  N     -212.138     720.601    -605.067
  C     -211.096     721.288    -605.692
  O     -210.691     722.359    -605.243
  N     -210.542     720.747    -606.829
  C     -210.985     719.618    -607.286
  N     -210.402     719.131    -608.412
  C     -212.079     718.856    -606.649
  C     -212.605     719.408    -605.552
  O     -215.511     716.517    -605.243
  O     -213.731     717.196    -603.515
  H     -212.846     723.761    -603.405
  H     -213.291     716.379    -603.808
  H     -212.413     717.921    -607.063
  H     -213.412     718.911    -605.026
  H     -211.886     721.723    -603.324
  H     -213.734     722.664    -605.242
  H     -215.189     720.807    -604.891
  H     -214.738     721.240    -601.884
  H     -209.659     719.692    -608.823
  H     -215.055     718.700    -601.927
  H     -210.598     718.226    -608.810
  H     -216.518     719.672    -602.197
  P     -217.205     722.618    -604.992
  C     -218.817     720.789    -604.155
  O     -218.119     721.328    -605.273
  O     -216.518     723.194    -606.183
  O     -218.236     723.639    -604.298
  H     -217.811     724.514    -604.129
  H     -219.387     719.939    -604.467
  H     -219.474     721.531    -603.753
  H     -218.114     720.492    -603.405

 6  7  8  9  10  11  12  13  14  15  16  26  30  31  32  33  35 0
 6-311+G(2d,p)
 ****
 37  38 0
 6-311+G(2d,p)
 ****
 1  2  3  4  5  17  18  19  20  21  22  23  24  25 0
 3-21G
 ****
 27  28  29  34  36  39  40  41  42  43  44  45  46 0
 3-21G
 ****


