%nproc=1
%NoSave
%Mem=1900MB
#P OB98/GEN NMR

erre ene a

0 1
  C      118.983      65.690      51.604
  O      119.816      64.760      50.897
  P      121.118      65.198      50.065
  C      121.633      67.201      48.503
  O      120.663      66.257      48.943
  C      121.289      67.731      47.108
  O      121.318      66.650      46.142
  C      119.891      68.320      46.962
  O      119.777      69.591      47.580
  C      119.733      68.341      45.442
  O      120.324      69.519      44.870
  C      120.525      67.092      45.009
  N      119.672      66.019      44.521
  C      119.408      66.006      43.144
  O      119.819      66.916      42.423
  N      118.669      64.968      42.633
  C      118.151      64.084      43.427
  N      117.445      63.069      42.857
  C      118.291      64.141      44.897
  C      119.058      65.124      45.369
  O      121.906      64.048      49.522
  O      121.998      66.071      51.082
  H      122.938      66.021      50.826
  H      119.766      70.274      45.139
  H      117.807      63.409      45.528
  H      119.227      65.231      46.437
  H      121.254      67.356      44.234
  H      118.680      68.330      45.138
  H      119.159      67.625      47.394
  H      122.049      68.472      46.824
  H      117.376      63.054      41.846
  H      122.610      66.704      48.463
  H      117.021      62.322      43.386
  H      121.694      68.022      49.229
  P      118.940      69.659      48.950
  C      116.418      69.636      49.577
  O      117.393      69.843      48.569
  O      119.354      71.081      49.572
  O      119.224      68.545      49.904
  H      119.445      70.998      50.541
  H      115.536      70.239      49.339
  H      116.790      69.924      50.566
  H      116.134      68.580      49.589
  H      118.182      65.162      52.078
  H      118.581      66.404      50.916
  H      119.564      66.197      52.345

 3  4  5  6  7  8  9  10  11  12  13  24  27  28  29  30  32 0
 6-311+G(2d,p)
 ****
 34  35 0
 6-311+G(2d,p)
 ****
 1  2  14  15  16  17  18  19  20  21  22  23  25  26 0
 3-21G
 ****
 31  33  36  37  38  39  40  41  42  43  44  45  46 0
 3-21G
 ****


