%nproc=1
%NoSave
%Mem=1900MB
#P OB98/GEN NMR

erre ene a

0 1
  C       52.394     622.855     237.991
  O       52.437     622.848     236.582
  H       52.710     623.838     238.342
  H       53.079     622.102     238.388
  H       51.375     622.658     238.351
  P       51.860     621.566     235.793
  C       53.578     621.610     233.872
  O       52.213     621.777     234.241
  C       53.667     620.932     232.502
  O       52.888     619.723     232.494
  C       53.088     621.787     231.362
  O       53.963     622.832     230.996
  C       52.879     620.719     230.300
  O       54.097     620.448     229.591
  C       52.431     619.503     231.131
  N       50.992     619.299     231.087
  C       50.563     618.008     230.827
  O       51.328     617.049     230.625
  N       49.204     617.829     230.701
  C       48.273     618.831     230.679
  O       47.112     618.668     230.329
  C       48.780     620.172     231.035
  C       50.086     620.336     231.202
  O       50.433     621.227     236.077
  O       52.846     620.381     236.230
  H       52.412     619.834     236.911
  H       53.919     619.663     229.034
  H       48.896     616.896     230.452
  H       48.063     620.982     231.107
  H       50.491     621.325     231.444
  H       52.945     618.595     230.784
  H       52.130     621.038     229.552
  H       52.109     622.195     231.658
  H       54.714     620.678     232.299
  H       54.075     620.977     234.616
  H       54.062     622.592     233.853
  P       53.559     624.356     231.270
  C       54.015     625.352     228.930
  O       54.434     625.292     230.294
  O       53.563     624.780     232.708
  O       52.083     624.479     230.647
  H       51.500     624.902     231.295
  H       54.668     626.000     228.384
  H       53.015     625.730     228.880
  H       54.048     624.371     228.503

 6  7  8  9  10  11  12  13  14  15  16  27  31  32  33  34  35 0
 6-311+G(2d,p)
 ****
 36  37 0
 6-311+G(2d,p)
 ****
 1  2  3  4  5  17  18  19  20  21  22  23  24  25 0
 3-21G
 ****
 26  28  29  30  38  39  40  41  42  43  44  45 0
 3-21G
 ****


