%nproc=1
%NoSave
%Mem=1900MB
#P OB98/GEN NMR

erre ene a

0 1
  C       94.316     -65.981      75.012
  O       95.391     -66.070      75.926
  H       93.378     -66.026      75.572
  H       94.341     -66.816      74.306
  H       94.355     -65.033      74.470
  P       96.883     -66.108      75.347
  C       97.595     -64.601      77.326
  O       97.855     -65.785      76.581
  C       97.918     -64.815      78.803
  O       96.968     -65.722      79.398
  C       99.291     -65.426      79.059
  O      100.307     -64.464      78.873
  C       99.114     -65.925      80.483
  O       99.232     -64.847      81.424
  C       97.658     -66.453      80.439
  N       97.568     -67.891      80.209
  C       97.464     -68.693      81.351
  O       97.468     -68.181      82.470
  N       97.378     -70.054      81.189
  C       97.353     -70.566      80.000
  N       97.261     -71.920      79.909
  C       97.425     -69.755      78.770
  C       97.542     -68.440      78.945
  O       97.141     -65.280      74.126
  O       97.152     -67.662      75.074
  H       98.928     -65.202      82.284
  H       96.944     -67.887      74.147
  H       97.389     -70.224      77.797
  H       97.599     -67.772      78.093
  H       97.141     -66.228      81.381
  H       99.859     -66.672      80.757
  H       99.447     -66.293      78.406
  H       97.816     -63.849      79.315
  H       97.194     -72.434      80.782
  H       96.531     -64.371      77.204
  H       97.071     -72.411      79.049
  H       98.176     -63.761      76.932
  P      101.727     -64.853      78.237
  C      102.299     -62.491      77.397
  O      102.621     -63.521      78.319
  O      101.667     -65.488      76.889
  O      102.396     -65.785      79.351
  H      102.003     -66.693      79.322
  H      102.957     -61.660      77.546
  H      101.288     -62.177      77.552
  H      102.409     -62.859      76.398

 6  7  8  9  10  11  12  13  14  15  16  26  30  31  32  33  35 0
 6-311+G(2d,p)
 ****
 37  38 0
 6-311+G(2d,p)
 ****
 1  2  3  4  5  17  18  19  20  21  22  23  24  25 0
 3-21G
 ****
 27  28  29  34  36  39  40  41  42  43  44  45  46 0
 3-21G
 ****


