%nproc=1
%NoSave
%Mem=1900MB
#P OB98/GEN NMR

erre ene a

0 1
  C     -113.659    -248.154      72.626
  O     -114.278    -247.177      71.816
  H     -113.099    -247.647      73.417
  H     -112.966    -248.761      72.039
  H     -114.414    -248.795      73.091
  P     -115.071    -247.659      70.510
  C     -117.408    -246.987      71.389
  O     -116.396    -246.762      70.419
  C     -118.290    -245.744      71.557
  O     -117.546    -244.736      72.301
  C     -118.721    -245.103      70.227
  O     -119.995    -244.484      70.440
  C     -117.640    -244.054      70.035
  O     -117.997    -243.119      69.049
  C     -117.490    -243.551      71.473
  N     -116.260    -242.803      71.677
  C     -116.149    -241.588      70.990
  O     -117.062    -241.212      70.254
  N     -115.003    -240.850      71.135
  C     -114.023    -241.314      71.841
  N     -112.908    -240.539      71.932
  C     -114.072    -242.621      72.537
  C     -115.210    -243.302      72.416
  O     -115.300    -249.129      70.396
  O     -114.181    -247.112      69.296
  H     -117.319    -242.411      68.976
  H     -113.689    -247.850      68.889
  H     -113.220    -242.968      73.099
  H     -115.341    -244.271      72.889
  H     -118.334    -242.909      71.754
  H     -116.707    -244.522      69.701
  H     -118.781    -245.824      69.407
  H     -119.161    -246.010      72.166
  H     -112.915    -239.658      71.431
  H     -116.909    -247.220      72.336
  H     -112.078    -240.804      72.439
  H     -118.028    -247.840      71.098
  P     -120.934    -243.991      69.240
  C     -123.107    -245.369      69.441
  O     -122.471    -244.119      69.682
  O     -120.629    -244.630      67.920
  O     -120.704    -242.405      69.157
  H     -120.818    -242.117      68.232
  H     -124.121    -245.324      69.779
  H     -122.589    -246.141      69.971
  H     -123.089    -245.582      68.393

 6  7  8  9  10  11  12  13  14  15  16  26  30  31  32  33  35 0
 6-311+G(2d,p)
 ****
 37  38 0
 6-311+G(2d,p)
 ****
 1  2  3  4  5  17  18  19  20  21  22  23  24  25 0
 3-21G
 ****
 27  28  29  34  36  39  40  41  42  43  44  45  46 0
 3-21G
 ****


