%nproc=1
%NoSave
%Mem=1900MB
#P OB98/GEN NMR

erre ene a

0 1
  C      227.477    -276.839     279.167
  O      227.787    -277.878     278.258
  H      228.408    -276.450     279.589
  H      226.858    -277.227     279.979
  H      226.954    -276.023     278.656
  P      226.594    -278.436     277.346
  C      225.868    -277.738     274.951
  O      226.311    -277.316     276.229
  C      225.569    -276.520     274.074
  O      224.620    -275.665     274.775
  C      226.801    -275.668     273.746
  O      226.660    -275.163     272.416
  C      226.693    -274.517     274.730
  O      227.386    -273.344     274.320
  C      225.176    -274.333     274.795
  N      224.749    -273.603     275.986
  C      225.361    -272.378     276.238
  O      226.169    -271.831     275.491
  N      225.009    -271.773     277.418
  C      224.145    -272.270     278.351
  O      223.887    -271.690     279.400
  C      223.536    -273.571     278.033
  C      223.863    -274.167     276.885
  O      225.321    -278.329     278.311
  O      226.791    -279.816     276.808
  H      225.213    -279.148     278.827
  H      228.344    -273.542     274.356
  H      225.442    -270.887     277.619
  H      222.857    -274.002     278.757
  H      223.447    -275.138     276.627
  H      224.814    -273.817     273.893
  H      227.093    -274.823     275.706
  H      227.752    -276.202     273.838
  H      225.074    -276.860     273.154
  H      224.955    -278.331     275.056
  H      226.641    -278.362     274.486
  P      227.493    -275.897     271.251
  C      227.169    -278.162     269.974
  O      226.635    -277.193     270.868
  O      228.736    -276.469     272.077
  O      227.842    -274.986     270.122
  H      228.498    -276.750     272.979
  H      226.459    -278.951     269.838
  H      228.074    -278.563     270.381
  H      227.376    -277.701     269.031

 6  7  8  9  10  11  12  13  14  15  16  27  31  32  33  34  35 0
 6-311+G(2d,p)
 ****
 36  37 0
 6-311+G(2d,p)
 ****
 1  2  3  4  5  17  18  19  20  21  22  23  24  25 0
 3-21G
 ****
 26  28  29  30  38  39  40  41  42  43  44  45 0
 3-21G
 ****


