%nproc=1
%NoSave
%Mem=1900MB
#P OB98/GEN NMR

erre ene a

0 1
  C      -46.394      78.599      61.674
  O      -45.836      77.469      61.026
  H      -46.498      78.376      62.740
  H      -47.384      78.822      61.261
  H      -45.734      79.463      61.554
  P      -45.634      77.577      59.436
  C      -47.403      77.900      57.571
  O      -47.097      77.313      58.829
  C      -48.355      77.008      56.779
  O      -47.708      75.767      56.440
  C      -49.633      76.634      57.523
  O      -50.598      77.668      57.402
  C      -50.057      75.385      56.762
  O      -50.732      75.768      55.548
  C      -48.711      74.720      56.425
  N      -46.558      70.068      56.783
  C      -46.992      70.779      55.715
  N      -47.603      71.982      55.698
  C      -47.747      72.461      56.946
  C      -47.359      71.850      58.129
  C      -46.731      70.596      58.018
  N      -46.293      69.875      59.109
  N      -47.673      72.637      59.218
  C      -48.188      73.733      58.695
  N      -48.290      73.661      57.326
  O      -44.525      76.758      58.868
  O      -45.469      79.162      59.257
  H      -51.523      76.276      55.813
  H      -46.096      79.638      59.833
  H      -46.826      70.314      54.745
  H      -48.485      74.610      59.258
  H      -48.714      74.286      55.416
  H      -50.749      74.762      57.330
  H      -49.432      76.367      58.568
  H      -48.590      77.521      55.836
  H      -46.482      78.064      56.995
  H      -46.035      68.911      58.952
  H      -46.541      70.214      60.028
  H      -47.866      78.875      57.764
  P      -51.571      78.039      58.626
  C      -53.411      76.787      59.914
  O      -52.514      76.754      58.809
  O      -52.271      79.345      58.485
  O      -50.627      77.976      59.914
  H      -51.051      78.437      60.667
  H      -53.984      75.884      59.935
  H      -54.069      77.625      59.814
  H      -52.854      76.877      60.823

 6  7  8  9  10  11  12  13  14  15  25  28  32  33  34  35 0
 6-311+G(2d,p)
 ****
 36  39  40 0
 6-311+G(2d,p)
 ****
 1  2  3  4  5  16  17  18  19  20  21  22  23  24 0
 3-21G
 ****
 26  27  29  30  31  37  38  41  42  43  44  45  46  47 0
 3-21G
 ****
 48 0
 3-21G
 ****


