%nproc=1
%NoSave
%Mem=1900MB
#P OB98/GEN NMR

erre ene a

0 1
  C       -2.745     327.073      31.677
  O       -1.664     327.971      31.471
  P       -0.355     327.404      30.745
  C        1.085     325.249      31.052
  O        0.195     326.186      31.634
  C        2.106     324.788      32.096
  O        2.819     325.919      32.633
  C        1.479     324.084      33.289
  O        1.146     322.743      32.987
  C        2.581     324.215      34.337
  O        3.568     323.179      34.177
  C        3.182     325.595      33.998
  N        2.756     326.635      34.933
  C        3.358     326.608      36.190
  O        4.188     325.750      36.516
  N        2.956     327.570      37.069
  C        1.981     328.509      36.847
  O        1.620     329.314      37.698
  C        1.358     328.466      35.511
  C        1.759     327.551      34.635
  O        0.733     328.557      30.963
  O       -0.537     327.075      29.301
  H        4.045     323.376      33.347
  H        1.315     328.616      30.179
  H        3.395     327.586      37.976
  H        0.586     329.201      35.301
  H        1.311     327.497      33.654
  H        4.279     325.546      34.013
  H        2.193     324.134      35.357
  H        0.594     324.644      33.634
  H        2.836     324.125      31.600
  H        1.600     325.717      30.209
  H        0.509     324.396      30.674
  P       -0.149     322.128      33.733
  C       -0.613     321.446      36.214
  O        0.321     321.890      35.243
  O       -0.201     320.670      33.072
  O       -1.377     322.953      33.538
  H        0.683     320.327      32.857
  H       -1.340     320.754      35.778
  H       -1.132     322.308      36.639
  H       -0.071     320.935      37.010
  H       -3.545     327.585      32.169
  H       -2.418     326.255      32.285
  H       -3.085     326.702      30.733

 3  4  5  6  7  8  9  10  11  12  13  23  28  29  30  31  32 0
 6-311+G(2d,p)
 ****
 33  34 0
 6-311+G(2d,p)
 ****
 1  2  14  15  16  17  18  19  20  21  22  24  25  26 0
 3-21G
 ****
 27  35  36  37  38  39  40  41  42  43  44  45 0
 3-21G
 ****


