%nproc=1
%NoSave
%Mem=1900MB
#P OB98/GEN NMR

erre ene a

0 1
  C     -172.909      -2.333     290.647
  O     -172.693      -3.585     290.018
  P     -172.023      -3.669     288.570
  C     -174.251      -3.807     287.189
  O     -173.065      -3.110     287.499
  C     -174.429      -3.830     285.665
  O     -174.884      -2.545     285.197
  C     -173.119      -4.156     284.952
  O     -173.031      -5.544     284.675
  C     -173.198      -3.295     283.707
  O     -174.004      -3.935     282.701
  C     -173.914      -2.033     284.244
  N     -173.100      -1.009     284.927
  C     -172.294      -0.157     284.176
  O     -172.233      -0.180     282.951
  N     -171.526       0.721     284.898
  C     -171.525       0.853     286.255
  O     -170.674       1.461     286.894
  C     -172.585       0.125     286.961
  C     -173.295      -0.774     286.281
  O     -171.998      -5.241     288.275
  O     -170.667      -3.056     288.452
  H     -174.888      -4.073     283.084
  H     -171.116      -5.614     288.467
  H     -170.837       1.245     284.369
  H     -172.716       0.306     288.020
  H     -174.062      -1.352     286.791
  H     -174.467      -1.526     283.446
  H     -172.213      -3.153     283.262
  H     -172.265      -3.821     285.556
  H     -175.197      -4.573     285.410
  H     -175.108      -3.319     287.666
  H     -174.202      -4.828     287.580
  P     -171.642      -6.307     284.893
  C     -171.257      -6.899     282.429
  O     -170.833      -6.109     283.522
  O     -171.748      -7.715     285.377
  O     -170.871      -5.373     285.943
  H     -170.979      -5.732     286.848
  H     -170.755      -6.545     281.526
  H     -172.339      -6.817     282.292
  H     -170.982      -7.944     282.600
  H     -173.364      -2.488     291.603
  H     -173.553      -1.734     290.038
  H     -171.972      -1.832     290.775

 3  4  5  6  7  8  9  10  11  12  13  23  28  29  30  31  32 0
 6-311+G(2d,p)
 ****
 33  34 0
 6-311+G(2d,p)
 ****
 1  2  14  15  16  17  18  19  20  21  22  24  25  26  27 0
 3-21G
 ****
 35  36  37  38  39  40  41  42  43  44  45 0
 3-21G
 ****


