%nproc=1
%NoSave
%Mem=1900MB
#P OB98/GEN NMR

erre ene a

0 1
  C      306.174      45.120     163.330
  O      305.576      44.199     164.221
  H      305.395      45.677     162.803
  H      306.782      45.822     163.905
  H      306.816      44.603     162.611
  P      304.885      42.900     163.581
  C      306.569      41.596     165.066
  O      305.911      41.683     163.809
  C      307.660      40.529     165.023
  O      307.033      39.236     164.776
  C      308.722      40.750     163.933
  O      309.997      40.374     164.460
  C      308.323      39.762     162.853
  O      309.419      39.372     162.033
  C      307.746      38.623     163.688
  N      306.805      33.819     162.306
  C      307.549      34.341     163.306
  N      307.701      35.639     163.637
  C      306.937      36.425     162.860
  C      306.123      36.037     161.810
  C      306.086      34.661     161.526
  N      305.388      34.125     160.467
  N      305.544      37.144     161.217
  C      306.019      38.177     161.882
  N      306.867      37.792     162.885
  O      304.995      43.193     162.009
  O      303.479      42.644     164.003
  H      309.086      38.801     161.311
  H      304.220      43.708     161.719
  H      308.098      33.626     163.909
  H      305.810      39.216     161.665
  H      308.524      37.972     164.106
  H      307.554      40.210     162.212
  H      308.764      41.781     163.561
  H      308.129      40.471     166.012
  H      305.837      41.324     165.831
  H      305.505      33.141     160.279
  H      304.937      34.749     159.814
  H      307.000      42.569     165.317
  P      310.783      41.464     165.336
  C      309.929      39.941     167.271
  O      310.457      41.207     166.884
  O      310.003      42.823     165.015
  O      312.236      41.572     165.007
  H      310.620      43.579     165.039
  H      309.767      39.930     168.329
  H      310.623      39.170     167.008
  H      309.000      39.773     166.767

 6  7  8  9  10  11  12  13  14  15  25  28  32  33  34  35 0
 6-311+G(2d,p)
 ****
 36  39  40 0
 6-311+G(2d,p)
 ****
 1  2  3  4  5  16  17  18  19  20  21  22  23  24 0
 3-21G
 ****
 26  27  29  30  31  37  38  41  42  43  44  45  46  47 0
 3-21G
 ****
 48 0
 3-21G
 ****


