%nproc=1
%NoSave
%Mem=1900MB
#P OB98/GEN NMR

erre ene a

0 1
  C     1162.346    -894.690     766.137
  O     1161.292    -894.830     767.105
  P     1160.824    -896.330     767.427
  C     1161.293    -896.670     769.962
  O     1161.731    -896.870     768.620
  C     1161.879    -895.350     770.509
  O     1161.460    -894.200     769.775
  C     1161.472    -895.090     771.982
  O     1162.267    -895.860     772.850
  C     1161.737    -893.570     772.062
  O     1163.114    -893.300     772.363
  C     1161.378    -893.080     770.686
  N     1158.332    -889.350     772.302
  C     1159.589    -889.740     772.769
  N     1160.085    -889.010     773.789
  N     1160.249    -890.740     772.269
  C     1159.627    -891.350     771.258
  C     1158.389    -891.040     770.690
  C     1157.670    -889.920     771.250
  O     1156.574    -889.530     770.868
  N     1158.122    -891.860     769.621
  C     1159.086    -892.760     769.627
  N     1160.066    -892.460     770.547
  O     1161.314    -897.150     766.146
  O     1159.345    -896.440     767.646
  H     1163.649    -893.460     771.572
  H     1160.520    -897.430     765.622
  H     1157.855    -888.560     772.736
  H     1159.134    -893.610     768.972
  H     1162.099    -892.330     770.328
  H     1161.150    -893.130     772.879
  H     1159.640    -888.250     774.238
  H     1160.399    -895.290     772.115
  H     1161.033    -889.290     774.151
  H     1162.958    -895.420     770.438
  H     1161.586    -897.490     770.607
  H     1160.188    -896.620     769.957
  P     1161.641    -897.200     773.441
  C     1163.371    -898.970     772.652
  O     1162.102    -898.420     772.488
  O     1160.077    -897.020     773.160
  O     1161.890    -897.420     774.909
  H     1159.575    -897.270     773.946
  H     1163.347    -900.000     772.358
  H     1163.725    -898.900     773.694
  H     1164.062    -898.420     771.995
  H     1162.573    -893.653     766.004
  H     1162.031    -895.109     765.204
  H     1163.218    -895.204     766.483

 3  4  5  6  7  8  9  10  11  12  23  26  30  31 0
 6-311+G(2d,p)
 ****
 33  35  36  37  38 0
 6-311+G(2d,p)
 ****
 1  2  13  14  15  16  17  18  19  20  21  22  24  25 0
 3-21G
 ****
 27  28  29  32  34  39  40  41  42  43  44  45  46  47  48  49 0
 3-21G
 ****


