%nproc=1
%NoSave
%Mem=1900MB
#P OB98/GEN NMR

erre ene a

0 1
  C     -899.348    -170.890    -389.648
  O     -899.098    -169.813    -388.736
  P     -898.408    -170.153    -387.326
  C     -896.218    -168.929    -388.081
  O     -896.828    -170.125    -387.579
  C     -895.318    -168.299    -387.004
  O     -894.448    -169.317    -386.472
  C     -894.398    -167.211    -387.532
  O     -895.088    -165.978    -387.692
  C     -893.318    -167.164    -386.491
  O     -893.698    -166.370    -385.374
  C     -893.188    -168.658    -386.067
  N     -892.018    -169.320    -386.640
  C     -890.858    -169.225    -385.926
  O     -890.768    -168.620    -384.874
  N     -889.758    -169.853    -386.470
  C     -889.718    -170.484    -387.699
  O     -888.678    -170.950    -388.145
  C     -890.988    -170.522    -388.454
  C     -892.068    -169.941    -387.897
  O     -898.698    -171.717    -387.114
  O     -898.888    -169.335    -386.188
  H     -892.938    -166.409    -384.743
  H     -898.828    -171.900    -386.168
  H     -888.898    -169.807    -385.946
  H     -890.978    -171.012    -389.387
  H     -893.018    -169.956    -388.417
  H     -893.148    -168.734    -384.980
  H     -892.368    -166.748    -386.863
  H     -893.948    -167.547    -388.513
  H     -895.958    -167.910    -386.213
  H     -897.008    -168.219    -388.335
  H     -895.668    -169.136    -388.991
  P     -894.628    -165.015    -388.892
  C     -896.818    -165.541    -390.241
  O     -895.418    -165.571    -390.206
  O     -893.108    -165.508    -389.085
  O     -894.788    -163.561    -388.582
  H     -893.008    -166.457    -388.913
  H     -897.228    -164.649    -389.728
  H     -897.218    -166.449    -389.756
  H     -897.128    -165.495    -391.289
  H     -899.808    -170.507    -390.535
  H     -900.000    -171.603    -389.188
  H     -898.423    -171.364    -389.902

 3  4  5  6  7  8  9  10  11  12  13  23  28  29  30  31  32 0
 6-311+G(2d,p)
 ****
 33  34 0
 6-311+G(2d,p)
 ****
 1  2  14  15  16  17  18  19  20  21  22  24  25  26 0
 3-21G
 ****
 27  35  36  37  38  39  40  41  42  43  44  45 0
 3-21G
 ****


