%nproc=1
%NoSave
%Mem=1900MB
#P OB98/GEN NMR

erre ene a

0 1
  C      605.187     152.866    -601.565
  O      605.149     152.921    -600.132
  P      604.895     151.540    -599.372
  C      606.629     151.836    -597.449
  O      606.262     151.119    -598.624
  C      607.595     150.998    -596.615
  O      606.929     149.880    -595.986
  C      608.728     150.379    -597.428
  O      609.703     151.352    -597.765
  C      609.216     149.304    -596.462
  O      610.061     149.883    -595.453
  C      607.904     148.823    -595.824
  N      607.117     143.803    -595.124
  C      607.654     144.760    -594.331
  N      607.832     146.067    -594.588
  C      607.369     146.381    -595.816
  C      606.796     145.513    -596.735
  C      606.673     144.167    -596.353
  N      606.135     143.203    -597.174
  N      606.453     146.203    -597.885
  C      606.839     147.439    -597.674
  N      607.389     147.601    -596.435
  O      604.782     150.469    -600.555
  O      603.679     151.537    -598.517
  H      610.279     149.167    -594.816
  H      603.857     150.174    -600.657
  H      607.989     144.415    -593.354
  H      606.745     148.248    -598.388
  H      608.009     148.622    -594.744
  H      609.797     148.512    -596.964
  H      608.329     149.921    -598.334
  H      608.008     151.638    -595.825
  H      605.744     152.082    -596.860
  H      606.155     142.246    -596.850
  H      605.880     143.445    -598.121
  H      607.077     152.787    -597.740
  P      609.802     151.793    -599.306
  C      608.988     154.132    -598.642
  O      608.747     152.996    -599.432
  O      609.064     150.581    -600.037
  O      611.185     152.096    -599.785
  H      608.229     150.348    -599.596
  H      608.211     154.882    -598.851
  H      609.970     154.561    -598.884
  H      608.948     153.869    -597.580
  H      605.362     153.847    -601.955
  H      604.252     152.498    -601.933
  H      605.975     152.212    -601.876

 3  4  5  6  7  8  9  10  11  12  22  25  29  30  31  32 0
 6-311+G(2d,p)
 ****
 33  36  37 0
 6-311+G(2d,p)
 ****
 1  2  13  14  15  16  17  18  19  20  21  23  24  26 0
 3-21G
 ****
 27  28  34  35  38  39  40  41  42  43  44  45  46  47  48 0
 3-21G
 ****


