%nproc=1
%NoSave
%Mem=1900MB
#P OB98/GEN NMR

erre ene a

0 1
  C      861.296    -890.910     665.083
  O      860.720    -892.190     664.900
  H      862.211    -891.020     665.659
  H      860.602    -890.270     665.633
  H      861.542    -890.460     664.121
  P      859.441    -892.350     663.946
  C      860.770    -893.780     662.265
  O      859.644    -893.710     663.109
  C      861.832    -894.720     662.860
  O      862.348    -894.180     664.101
  C      861.268    -896.100     663.225
  O      861.075    -896.910     662.082
  C      862.346    -896.580     664.193
  O      863.463    -897.140     663.495
  C      862.751    -895.270     664.933
  N      862.132    -895.200     666.278
  C      862.592    -896.100     667.186
  O      863.472    -896.940     666.967
  N      861.991    -896.060     668.424
  C      860.883    -895.280     668.738
  O      860.235    -895.460     669.760
  C      860.512    -894.280     667.731
  C      861.143    -894.300     666.562
  O      859.107    -891.150     663.120
  O      858.248    -892.720     664.953
  H      857.720    -891.930     665.112
  H      863.107    -897.750     662.825
  H      862.286    -896.760     669.088
  H      859.689    -893.630     667.967
  H      860.829    -893.580     665.770
  H      863.852    -895.230     665.038
  H      861.982    -897.360     664.872
  H      860.319    -895.970     663.777
  H      862.665    -894.830     662.151
  H      861.209    -892.770     662.168
  H      860.481    -894.120     661.267
  P      860.560    -898.440     662.275
  C      858.210    -897.430     661.999
  O      859.078    -898.540     661.698
  O      860.765    -899.010     663.625
  O      861.434    -899.220     661.170
  H      861.842    -900.000     661.601
  H      857.247    -897.602     661.565
  H      858.627    -896.531     661.595
  H      858.111    -897.332     663.060

 6  7  8  9  10  11  12  13  14  15  16  27  31  32  33  34  35 0
 6-311+G(2d,p)
 ****
 36  37 0
 6-311+G(2d,p)
 ****
 1  2  3  4  5  17  18  19  20  21  22  23  24  25 0
 3-21G
 ****
 26  28  29  30  38  39  40  41  42  43  44  45 0
 3-21G
 ****


