%nproc=1
%NoSave
%Mem=1900MB
#P OB98/GEN NMR

erre ene a

0 1
  C      110.718     -88.810    -164.752
  O      111.739     -89.411    -163.974
  P      111.306     -90.302    -162.717
  C      110.896     -89.828    -160.194
  O      110.911     -89.310    -161.517
  C      110.291     -88.820    -159.217
  O      108.855     -88.745    -159.425
  C      110.520     -89.176    -157.746
  O      110.669     -87.968    -156.983
  C      109.211     -89.819    -157.327
  O      109.015     -89.737    -155.918
  C      108.218     -89.003    -158.157
  N      103.474     -89.470    -156.471
  C      104.401     -88.476    -156.220
  N      104.038     -87.526    -155.333
  N      105.573     -88.415    -156.794
  C      105.801     -89.437    -157.656
  C      104.956     -90.470    -157.998
  C      103.667     -90.531    -157.348
  O      102.812     -91.400    -157.502
  N      105.525     -91.294    -158.936
  C      106.729     -90.793    -159.127
  N      106.955     -89.686    -158.350
  O      112.696     -90.938    -162.234
  O      110.309     -91.368    -163.021
  H      108.225     -90.273    -155.711
  H      112.735     -91.878    -162.493
  H      102.589     -89.479    -155.995
  H      107.477     -91.200    -159.798
  H      108.007     -88.034    -157.691
  H      109.202     -90.876    -157.616
  H      103.178     -87.552    -154.805
  H      111.385     -89.824    -157.563
  H      104.714     -86.810    -155.097
  H      110.698     -87.826    -159.444
  H      111.919     -90.054    -159.889
  H      110.323     -90.762    -160.176
  P      111.482     -88.100    -155.605
  C      111.118     -89.583    -153.492
  O      110.546     -88.957    -154.625
  O      111.419     -86.622    -154.993
  O      112.883     -88.593    -155.764
  H      112.177     -86.469    -154.401
  H      110.673     -89.149    -152.592
  H      112.202     -89.452    -153.449
  H      110.891     -90.647    -153.524
  H      111.160     -88.251    -165.550
  H      110.139     -88.155    -164.135
  H      110.084     -89.571    -165.158

 3  4  5  6  7  8  9  10  11  12  23  26  30  31 0
 6-311+G(2d,p)
 ****
 33  35  36  37  38 0
 6-311+G(2d,p)
 ****
 1  2  13  14  15  16  17  18  19  20  21  22  24  25 0
 3-21G
 ****
 27  28  29  32  34  39  40  41  42  43  44  45  46  47  48  49 0
 3-21G
 ****


