%nproc=1
%NoSave
%Mem=1900MB
#P OB98/GEN NMR

erre ene a

0 1
  C      248.642     313.147     535.280
  O      248.804     312.394     534.076
  P      247.499     311.902     533.284
  C      247.910     309.432     532.670
  O      247.950     310.782     532.222
  C      248.814     308.548     531.812
  O      248.241     308.321     530.509
  C      250.178     309.163     531.545
  O      250.998     309.085     532.705
  C      250.658     308.354     530.359
  O      251.219     307.087     530.788
  C      249.346     308.101     529.594
  N      249.215     308.941     528.403
  C      249.057     308.252     527.187
  O      249.071     307.018     527.165
  N      248.895     308.983     526.032
  C      248.897     310.278     526.089
  N      248.740     310.946     524.916
  C      249.073     311.030     527.345
  C      249.228     310.306     528.454
  O      246.627     312.991     532.737
  O      246.712     311.035     534.388
  H      251.776     306.769     530.042
  H      245.757     311.091     534.204
  H      249.061     312.120     527.336
  H      249.363     310.788     529.416
  H      249.278     307.048     529.271
  H      251.434     308.861     529.793
  H      250.061     310.217     531.245
  H      248.930     307.584     532.313
  H      248.627     310.403     524.066
  H      246.884     309.063     532.627
  H      248.675     311.958     524.860
  H      248.211     309.408     533.725
  P      251.476     310.464     533.375
  C      253.828     309.583     533.992
  O      252.612     310.118     534.460
  O      250.211     310.869     534.289
  O      251.809     311.559     532.406
  H      250.124     311.835     534.310
  H      254.584     309.704     534.768
  H      254.178     310.091     533.091
  H      253.704     308.519     533.785
  H      249.604     313.394     535.678
  H      248.099     312.565     535.995
  H      248.102     314.046     535.068

 3  4  5  6  7  8  9  10  11  12  13  23  27  28  29  30  32 0
 6-311+G(2d,p)
 ****
 34  35 0
 6-311+G(2d,p)
 ****
 1  2  14  15  16  17  18  19  20  21  22  24  25  26 0
 3-21G
 ****
 31  33  36  37  38  39  40  41  42  43  44  45  46 0
 3-21G
 ****


