%nproc=1
%NoSave
%Mem=1900MB
#P OB98/GEN NMR

erre ene a

0 1
  C       77.860      74.755     -96.034
  O       79.095      74.644     -96.715
  P       80.449      74.363     -95.912
  C       81.420      72.357     -94.650
  O       80.230      73.027     -95.047
  C       81.216      71.591     -93.343
  O       81.135      72.541     -92.245
  C       79.946      70.729     -93.295
  O       80.259      69.576     -92.507
  C       78.969      71.613     -92.538
  O       77.894      70.882     -91.960
  C       79.913      72.260     -91.531
  N       79.172      74.944     -87.244
  C       79.693      73.718     -87.457
  N       79.833      73.061     -88.626
  C       79.369      73.802     -89.646
  C       78.783      75.055     -89.580
  C       78.706      75.645     -88.305
  N       78.210      76.909     -88.074
  N       78.381      75.466     -90.838
  C       78.719      74.479     -91.642
  N       79.377      73.482     -90.975
  O       80.986      75.522     -95.141
  O       81.480      73.896     -97.043
  H       77.404      71.477     -91.362
  H       82.122      74.611     -97.222
  H       80.051      73.196     -86.573
  H       78.513      74.435     -92.702
  H       80.153      71.587     -90.699
  H       78.543      72.358     -93.221
  H       79.571      70.435     -94.280
  H       82.104      70.972     -93.168
  H       82.201      73.108     -94.509
  H       78.323      77.284     -87.145
  H       78.106      77.548     -88.861
  H       81.740      71.670     -95.442
  P       79.551      68.173     -92.826
  C       80.004      66.362     -94.575
  O       80.024      67.749     -94.295
  O       78.079      68.132     -92.588
  O       80.334      67.138     -91.882
  H       79.807      66.321     -91.789
  H       80.902      65.894     -94.160
  H       79.996      66.218     -95.659
  H       79.117      65.884     -94.147
  H       77.079      74.942     -96.741
  H       77.910      75.563     -95.335
  H       77.658      73.843     -95.512

 3  4  5  6  7  8  9  10  11  12  22  25  29  30  31  32 0
 6-311+G(2d,p)
 ****
 33  36  37 0
 6-311+G(2d,p)
 ****
 1  2  13  14  15  16  17  18  19  20  21  23  24  26 0
 3-21G
 ****
 27  28  34  35  38  39  40  41  42  43  44  45  46  47  48 0
 3-21G
 ****


