%nproc=1
%NoSave
%Mem=1900MB
#P OB98/GEN NMR

erre ene a

0 1
  C     -197.582      56.941     -15.367
  O     -197.665      58.147     -16.102
  H     -198.535      56.412     -15.450
  H     -197.394      57.161     -14.313
  H     -196.786      56.303     -15.761
  P     -196.309      58.974     -16.315
  C     -195.254      59.981     -18.468
  O     -196.442      59.710     -17.737
  C     -195.603      60.365     -19.906
  O     -196.049      59.171     -20.610
  C     -196.724      61.408     -20.019
  O     -196.433      62.264     -21.131
  C     -197.945      60.568     -20.344
  O     -198.982      61.285     -20.999
  C     -197.318      59.477     -21.220
  N     -198.158      58.283     -21.317
  C     -199.368      58.406     -21.991
  O     -199.744      59.418     -22.584
  N     -200.171      57.293     -21.970
  C     -199.898      56.115     -21.339
  O     -200.668      55.161     -21.339
  C     -198.610      56.050     -20.637
  C     -197.811      57.120     -20.656
  O     -195.228      57.827     -16.589
  O     -195.920      59.870     -15.187
  H     -194.827      57.528     -15.751
  H     -199.416      61.850     -20.328
  H     -201.051      57.366     -22.454
  H     -198.364      55.133     -20.114
  H     -196.863      57.114     -20.129
  H     -197.114      59.865     -22.224
  H     -198.358      60.139     -19.424
  H     -196.868      62.012     -19.117
  H     -194.693      60.712     -20.408
  H     -194.624      59.087     -18.481
  H     -194.706      60.793     -17.978
  P     -195.792      63.702     -20.810
  C     -194.897      65.606     -22.373
  O     -195.745      64.476     -22.213
  O     -194.272      63.301     -20.524
  O     -196.484      64.412     -19.696
  H     -193.959      62.565     -21.073
  H     -194.997      65.989     -23.367
  H     -193.881      65.316     -22.203
  H     -195.175      66.363     -21.669

 6  7  8  9  10  11  12  13  14  15  16  27  31  32  33  34  35 0
 6-311+G(2d,p)
 ****
 36  37 0
 6-311+G(2d,p)
 ****
 1  2  3  4  5  17  18  19  20  21  22  23  24  25 0
 3-21G
 ****
 26  28  29  30  38  39  40  41  42  43  44  45 0
 3-21G
 ****


