%nproc=1
%NoSave
%Mem=1900MB
#P OB98/GEN NMR

erre ene a

0 1
  C      -93.324    -337.848     105.136
  O      -92.859    -337.262     106.338
  H      -93.561    -337.051     104.428
  H      -94.232    -338.427     105.325
  H      -92.555    -338.491     104.696
  P      -92.298    -338.218     107.495
  C      -91.130    -336.047     108.255
  O      -91.742    -337.267     108.656
  C      -90.768    -335.219     109.487
  O      -89.997    -336.013     110.414
  C      -89.914    -333.998     109.176
  O      -90.689    -332.958     108.616
  C      -89.340    -333.694     110.551
  O      -90.285    -332.970     111.353
  C      -89.107    -335.114     111.114
  N      -87.717    -335.552     110.998
  C      -87.281    -336.477     111.944
  O      -87.990    -336.899     112.858
  N      -85.979    -336.887     111.820
  C      -85.065    -336.386     110.939
  O      -83.885    -336.724     110.927
  C      -85.574    -335.394     109.984
  C      -86.858    -335.030     110.054
  O      -91.357    -339.291     107.050
  O      -93.624    -338.840     108.147
  H      -90.501    -332.156     110.855
  H      -93.726    -339.764     107.855
  H      -85.638    -337.545     112.501
  H      -84.884    -334.983     109.259
  H      -87.252    -334.296     109.363
  H      -89.392    -335.151     112.174
  H      -88.434    -333.087     110.495
  H      -89.094    -334.274     108.504
  H      -91.703    -334.923     109.988
  H      -91.836    -335.489     107.634
  H      -90.237    -336.276     107.663
  P      -90.200    -332.227     107.279
  C      -92.446    -330.991     107.452
  O      -91.069    -330.891     107.102
  O      -90.117    -333.094     106.067
  O      -88.751    -331.662     107.667
  H      -88.082    -332.057     107.077
  H      -92.923    -330.046     107.295
  H      -92.533    -331.268     108.482
  H      -92.916    -331.734     106.842

 6  7  8  9  10  11  12  13  14  15  16  26  31  32  33  34  35 0
 6-311+G(2d,p)
 ****
 36  37 0
 6-311+G(2d,p)
 ****
 1  2  3  4  5  17  18  19  20  21  22  23  24  25 0
 3-21G
 ****
 27  28  29  30  38  39  40  41  42  43  44  45 0
 3-21G
 ****


