%nproc=1
%NoSave
%Mem=1900MB
#P OB98/GEN NMR

erre ene a

0 1
  C     -339.773     106.386     -49.045
  O     -340.302     105.140     -49.455
  H     -338.974     106.674     -49.734
  H     -339.352     106.319     -48.038
  H     -340.549     107.156     -49.068
  P     -341.387     104.431     -48.514
  C     -341.260     104.243     -45.934
  O     -340.600     104.026     -47.180
  C     -340.242     104.226     -44.797
  O     -339.268     105.276     -44.984
  C     -340.871     104.489     -43.431
  O     -341.551     103.338     -42.964
  C     -339.651     104.900     -42.632
  O     -338.893     103.763     -42.210
  C     -338.867     105.734     -43.672
  N     -339.094     107.172     -43.531
  C     -338.181     107.862     -42.733
  O     -337.245     107.264     -42.195
  N     -338.362     109.213     -42.542
  C     -339.358     109.816     -43.111
  N     -339.484     111.149     -42.882
  C     -340.337     109.127     -43.975
  C     -340.149     107.819     -44.134
  O     -342.184     103.317     -49.120
  O     -342.320     105.644     -48.034
  H     -339.441     103.304     -41.544
  H     -343.058     105.772     -48.656
  H     -341.150     109.674     -44.435
  H     -340.822     107.239     -44.756
  H     -337.792     105.549     -43.585
  H     -339.933     105.464     -41.743
  H     -341.553     105.344     -43.487
  H     -339.719     103.263     -44.812
  H     -338.791     111.581     -42.275
  H     -341.981     103.429     -45.811
  H     -340.163     111.739     -43.340
  H     -341.803     105.196     -45.947
  P     -342.413     103.394     -41.611
  C     -342.043     104.411     -39.266
  O     -341.465     104.131     -40.534
  O     -342.997     102.098     -41.170
  O     -343.514     104.514     -41.928
  H     -344.208     104.175     -42.547
  H     -341.321     104.897     -38.644
  H     -342.352     103.496     -38.805
  H     -342.891     105.050     -39.394

 6  7  8  9  10  11  12  13  14  15  16  26  30  31  32  33  35 0
 6-311+G(2d,p)
 ****
 37  38 0
 6-311+G(2d,p)
 ****
 1  2  3  4  5  17  18  19  20  21  22  23  24  25 0
 3-21G
 ****
 27  28  29  34  36  39  40  41  42  43  44  45  46 0
 3-21G
 ****


