%nproc=1
%NoSave
%Mem=1900MB
#P OB98/GEN NMR

erre ene a

0 1
  C     -298.327     -78.645     471.180
  O     -299.225     -77.931     472.006
  P     -298.861     -76.461     472.531
  C     -297.645     -77.491     474.567
  O     -297.532     -76.645     473.418
  C     -296.314     -77.586     475.307
  O     -295.293     -78.151     474.443
  C     -295.758     -76.253     475.776
  O     -296.436     -75.808     476.932
  C     -294.286     -76.598     475.994
  O     -294.088     -77.216     477.270
  C     -294.024     -77.611     474.850
  N     -293.312     -77.004     473.731
  C     -291.921     -76.959     473.837
  O     -291.361     -77.395     474.845
  N     -291.186     -76.390     472.816
  C     -291.803     -75.887     471.791
  N     -291.031     -75.327     470.814
  C     -293.274     -75.881     471.646
  C     -293.961     -76.444     472.649
  O     -299.977     -75.718     473.188
  O     -298.310     -75.727     471.207
  H     -293.150     -77.503     477.291
  H     -299.038     -75.500     470.584
  H     -293.745     -75.432     470.784
  H     -295.040     -76.481     472.634
  H     -293.430     -78.457     475.218
  H     -293.639     -75.714     475.953
  H     -295.840     -75.508     474.964
  H     -296.446     -78.261     476.166
  H     -290.036     -75.323     470.968
  H     -297.952     -78.484     474.226
  H     -291.405     -74.875     469.997
  H     -298.428     -77.090     475.227
  P     -297.318     -74.470     476.882
  C     -295.317     -73.006     477.555
  O     -296.336     -73.240     476.589
  O     -298.258     -74.276     478.029
  O     -298.131     -74.607     475.500
  H     -299.069     -74.347     475.651
  H     -294.538     -72.392     477.107
  H     -294.877     -73.960     477.898
  H     -295.735     -72.475     478.414
  H     -298.747     -79.599     470.937
  H     -297.401     -78.785     471.697
  H     -298.153     -78.092     470.280

 3  4  5  6  7  8  9  10  11  12  13  23  27  28  29  30  32 0
 6-311+G(2d,p)
 ****
 34  35 0
 6-311+G(2d,p)
 ****
 1  2  14  15  16  17  18  19  20  21  22  24  25  26 0
 3-21G
 ****
 31  33  36  37  38  39  40  41  42  43  44  45  46 0
 3-21G
 ****


