%nproc=1
%NoSave
%Mem=1900MB
#P OB98/GEN NMR

erre ene a

0 1
  C     -328.404      52.031      55.952
  O     -328.277      50.646      55.667
  P     -326.815      50.091      55.304
  C     -325.386      50.056      53.137
  O     -326.428      50.686      53.867
  C     -324.966      50.908      51.936
  O     -324.593      52.232      52.409
  C     -323.774      50.351      51.141
  O     -324.001      50.684      49.764
  C     -322.612      51.143      51.718
  O     -321.443      51.114      50.917
  C     -323.269      52.507      51.891
  N     -319.779      56.233      52.182
  C     -320.355      55.621      51.125
  N     -321.284      54.640      51.124
  C     -321.624      54.307      52.381
  C     -321.110      54.830      53.559
  C     -320.143      55.841      53.428
  N     -319.550      56.457      54.512
  N     -321.679      54.220      54.658
  C     -322.523      53.341      54.156
  N     -322.539      53.373      52.786
  O     -327.082      48.543      55.006
  O     -325.782      50.288      56.374
  H     -321.045      50.218      50.940
  H     -326.356      47.985      55.349
  H     -320.028      55.960      50.148
  H     -323.129      52.655      54.734
  H     -323.384      53.030      50.934
  H     -322.341      50.716      52.693
  H     -323.661      49.262      51.230
  H     -325.837      51.029      51.278
  H     -325.736      49.086      52.763
  H     -318.733      57.020      54.314
  H     -319.672      56.021      55.416
  H     -324.535      49.872      53.803
  P     -324.129      49.500      48.689
  C     -322.371      48.119      47.423
  O     -322.626      48.950      48.542
  O     -324.301      50.340      47.337
  O     -325.206      48.502      48.947
  H     -323.606      51.018      47.248
  H     -321.300      47.898      47.391
  H     -322.658      48.631      46.499
  H     -322.918      47.179      47.522
  H     -329.426      52.257      56.175
  H     -328.090      52.600      55.102
  H     -327.792      52.280      56.794

 3  4  5  6  7  8  9  10  11  12  22  25  29  30  31  32 0
 6-311+G(2d,p)
 ****
 33  36  37 0
 6-311+G(2d,p)
 ****
 1  2  13  14  15  16  17  18  19  20  21  23  24  26 0
 3-21G
 ****
 27  28  34  35  38  39  40  41  42  43  44  45  46  47  48 0
 3-21G
 ****


