%nproc=1
%NoSave
%Mem=1900MB
#P OB98/GEN NMR

erre ene a

0 1
  C       44.363      10.279      13.968
  O       45.403      11.043      14.550
  P       45.055      12.355      15.398
  C       46.256      13.843      13.633
  O       46.125      13.475      14.988
  C       47.610      14.513      13.368
  O       47.639      14.925      11.980
  C       47.871      15.775      14.183
  O       49.274      16.048      14.163
  C       47.139      16.823      13.375
  O       47.593      18.142      13.663
  C       47.370      16.345      11.919
  N       46.193      16.607      11.070
  C       46.140      17.842      10.431
  O       47.053      18.665      10.488
  N       44.966      18.136       9.794
  C       43.856      17.345       9.782
  O       42.737      17.742       9.482
  C       44.053      15.968      10.262
  C       45.189      15.673      10.900
  O       45.484      11.942      16.882
  O       43.631      12.787      15.332
  H       48.510      18.211      13.309
  H       44.707      11.630      17.383
  H       44.877      19.087       9.455
  H       43.244      15.262      10.134
  H       45.341      14.679      11.312
  H       48.232      16.848      11.465
  H       46.070      16.781      13.619
  H       47.508      15.727      15.214
  H       48.413      13.782      13.521
  H       45.435      14.512      13.360
  H       46.163      12.961      12.989
  P       50.166      15.474      15.366
  C       49.234      16.862      17.314
  O       50.316      16.668      16.425
  O       51.438      14.800      14.972
  O       49.164      14.466      16.109
  H       49.673      13.846      16.663
  H       49.617      17.284      18.247
  H       48.721      15.922      17.533
  H       48.526      17.567      16.870
  H       44.783       9.446      13.444
  H       43.812      10.890      13.284
  H       43.709       9.924      14.736

 3  4  5  6  7  8  9  10  11  12  13  23  28  29  30  31  32 0
 6-311+G(2d,p)
 ****
 33  34 0
 6-311+G(2d,p)
 ****
 1  2  14  15  16  17  18  19  20  21  22  24  25  26  27 0
 3-21G
 ****
 35  36  37  38  39  40  41  42  43  44  45 0
 3-21G
 ****


