%nproc=1
%NoSave
%Mem=1900MB
#P OB98/GEN NMR

erre ene a

0 1
  C     -387.744    -635.022     368.523
  O     -387.708    -635.349     367.148
  H     -388.786    -635.041     368.862
  H     -387.345    -634.017     368.678
  H     -387.169    -635.746     369.107
  P     -386.261    -635.544     366.489
  C     -386.392    -638.118     366.989
  O     -385.651    -636.909     367.080
  C     -385.543    -639.205     366.327
  O     -385.349    -638.929     364.925
  C     -384.127    -639.301     366.874
  O     -384.085    -639.846     368.177
  C     -383.482    -640.179     365.815
  O     -383.819    -641.558     366.009
  C     -384.140    -639.630     364.524
  N     -383.244    -638.770     363.768
  C     -382.429    -639.412     362.824
  O     -382.504    -640.634     362.670
  N     -381.533    -638.662     362.105
  C     -381.470    -637.379     362.289
  N     -380.553    -636.695     361.555
  C     -382.324    -636.657     363.251
  C     -383.178    -637.408     363.952
  O     -385.388    -634.422     367.222
  O     -386.227    -635.481     364.998
  H     -383.434    -641.820     366.867
  H     -385.433    -634.463     368.191
  H     -382.245    -635.586     363.364
  H     -383.839    -636.954     364.680
  H     -384.454    -640.452     363.869
  H     -382.392    -640.113     365.835
  H     -383.641    -638.320     366.846
  H     -386.081    -640.159     366.420
  H     -379.970    -637.226     360.920
  H     -387.324    -637.968     366.439
  H     -380.391    -635.702     361.635
  H     -386.658    -638.419     368.008
  P     -382.859    -639.516     369.157
  C     -383.871    -637.270     369.898
  O     -382.774    -637.917     369.255
  O     -381.570    -640.187     368.808
  O     -383.425    -639.917     370.599
  H     -384.221    -639.425     370.874
  H     -383.707    -636.213     369.905
  H     -383.955    -637.625     370.904
  H     -384.774    -637.487     369.367

 6  7  8  9  10  11  12  13  14  15  16  26  30  31  32  33  35 0
 6-311+G(2d,p)
 ****
 37  38 0
 6-311+G(2d,p)
 ****
 1  2  3  4  5  17  18  19  20  21  22  23  24  25 0
 3-21G
 ****
 27  28  29  34  36  39  40  41  42  43  44  45  46 0
 3-21G
 ****


