%nproc=1
%NoSave
%Mem=1900MB
#P OB98/GEN NMR

erre ene a

0 1
  C      559.357    -325.050     495.535
  O      559.700    -326.429     495.592
  H      558.597    -324.887     494.761
  H      558.957    -324.740     496.504
  H      560.249    -324.454     495.304
  P      560.274    -327.090     494.264
  C      562.658    -326.101     494.514
  O      561.474    -326.160     493.743
  C      563.869    -326.499     493.669
  O      563.861    -325.664     492.476
  C      565.236    -326.324     494.373
  O      565.933    -327.565     494.395
  C      565.994    -325.345     493.487
  O      567.374    -325.691     493.326
  C      565.242    -325.406     492.160
  N      568.406    -322.731     489.203
  C      568.361    -324.043     489.474
  N      567.433    -324.719     490.187
  C      566.456    -323.882     490.613
  C      566.365    -322.519     490.374
  C      567.421    -321.938     489.663
  N      567.495    -320.574     489.413
  N      565.217    -321.993     490.969
  C      564.666    -323.010     491.586
  N      565.388    -324.177     491.406
  O      559.111    -326.841     493.184
  O      560.612    -328.542     494.370
  H      567.776    -325.616     494.217
  H      558.919    -327.680     492.706
  H      569.176    -324.649     489.090
  H      563.779    -322.974     492.218
  H      565.604    -326.240     491.527
  H      565.920    -324.343     493.921
  H      565.133    -325.929     495.403
  H      563.735    -327.527     493.334
  H      562.568    -326.808     495.360
  H      568.330    -320.220     488.967
  H      566.814    -319.963     489.839
  H      562.775    -325.087     494.928
  P      566.217    -328.213     495.847
  C      563.798    -329.094     496.298
  O      564.834    -328.171     496.656
  O      567.096    -327.077     496.584
  O      566.900    -329.529     495.804
  H      567.664    -327.494     497.237
  H      562.947    -328.937     496.928
  H      564.154    -330.095     496.422
  H      563.519    -328.939     495.277

 6  7  8  9  10  11  12  13  14  15  25  28  32  33  34  35 0
 6-311+G(2d,p)
 ****
 36  39  40 0
 6-311+G(2d,p)
 ****
 1  2  3  4  5  16  17  18  19  20  21  22  23  24 0
 3-21G
 ****
 26  27  29  30  31  37  38  41  42  43  44  45  46  47  48 0
 3-21G
 ****


