%nproc=1
%NoSave
%Mem=1900MB
#P OB98/GEN NMR

erre ene a

0 1
  C       13.482     397.426    -897.134
  O       12.442     396.463    -897.214
  H       13.667     397.632    -896.064
  H       13.167     398.351    -897.614
  H       14.396     397.051    -897.574
  P       12.071     395.944    -898.704
  C       12.219     393.430    -898.044
  O       11.391     394.495    -898.504
  C       11.452     392.533    -897.064
  O       11.371     393.220    -895.774
  C       10.009     392.209    -897.494
  O        9.721     390.873    -897.054
  C        9.177     393.176    -896.674
  O        7.826     392.741    -896.534
  C        9.985     393.191    -895.364
  N        7.363     394.579    -891.304
  C        7.551     393.315    -891.854
  N        6.946     392.275    -891.254
  N        8.273     393.117    -892.934
  C        8.846     394.244    -893.424
  C        8.717     395.551    -892.954
  C        7.909     395.768    -891.794
  O        7.689     396.847    -891.244
  N        9.443     396.415    -893.734
  C        9.982     395.637    -894.694
  N        9.641     394.331    -894.524
  O       13.507     395.611    -899.324
  O       11.297     396.913    -899.544
  H        7.834     391.893    -896.024
  H       13.841     396.383    -899.834
  H        6.789     394.670    -890.474
  H       10.608     396.007    -895.494
  H        9.809     392.292    -894.774
  H        9.166     394.176    -897.144
  H        6.420     392.351    -890.394
  H        9.831     392.289    -898.574
  H        7.105     391.352    -891.634
  H       12.040     391.620    -896.894
  H       13.096     393.866    -897.544
  H       12.559     392.845    -898.914
  P        8.413     390.154    -897.644
  C        9.826     388.485    -899.094
  O        8.819     388.662    -898.094
  O        8.230     390.891    -899.054
  O        7.184     390.278    -896.804
  H        7.288     390.883    -899.324
  H        9.972     387.440    -899.272
  H       10.743     388.921    -898.757
  H        9.516     388.962    -900.000

 6  7  8  9  10  11  12  13  14  15  26  29  33  34 0
 6-311+G(2d,p)
 ****
 36  38  39  40  41 0
 6-311+G(2d,p)
 ****
 1  2  3  4  5  16  17  18  19  20  21  22  23  24  25 0
 3-21G
 ****
 27  28  30  31  32  35  37  42  43  44  45  46  47 0
 3-21G
 ****
 48  49 0
 3-21G
 ****


