%nproc=1
%NoSave
%Mem=1900MB
#P OB98/GEN NMR

erre ene a

0 1
  C     -144.922      97.553     117.802
  O     -144.186      98.765     117.809
  P     -144.980     100.143     117.621
  C     -143.681     100.669     115.431
  O     -144.069     101.110     116.722
  C     -142.289     101.199     115.082
  O     -142.293     102.658     115.163
  C     -141.175     100.691     116.009
  O     -139.980     100.561     115.220
  C     -141.014     101.840     116.986
  O     -139.770     101.824     117.670
  C     -141.210     103.031     116.041
  N     -141.492     104.278     116.747
  C     -140.687     104.592     117.839
  O     -139.763     103.885     118.241
  N     -141.020     105.737     118.514
  C     -142.102     106.528     118.268
  O     -142.410     107.478     118.985
  C     -142.917     106.152     117.104
  C     -142.581     105.062     116.407
  O     -144.915     100.804     119.076
  O     -146.383      99.992     117.138
  H     -139.681     100.951     118.094
  H     -145.755     100.661     119.553
  H     -140.440     105.985     119.299
  H     -143.773     106.771     116.869
  H     -143.175     104.748     115.559
  H     -140.319     103.162     115.412
  H     -141.810     101.792     117.738
  H     -141.412      99.744     116.501
  H     -142.064     100.937     114.038
  H     -144.400     101.035     114.697
  H     -143.696      99.573     115.395
  P     -139.498      99.077     114.831
  C     -137.219      99.529     116.038
  O     -137.896      99.089     114.877
  O     -139.839      99.056     113.263
  O     -140.182      98.000     115.606
  H     -139.585      99.882     112.813
  H     -137.768      99.267     116.947
  H     -137.094     100.613     115.994
  H     -136.235      99.057     116.073
  H     -144.253      96.729     117.938
  H     -145.430      97.450     116.866
  H     -145.638      97.566     118.597

 3  4  5  6  7  8  9  10  11  12  13  23  28  29  30  31  32 0
 6-311+G(2d,p)
 ****
 33  34 0
 6-311+G(2d,p)
 ****
 1  2  14  15  16  17  18  19  20  21  22  24  25  26 0
 3-21G
 ****
 27  35  36  37  38  39  40  41  42  43  44  45 0
 3-21G
 ****


