%nproc=1
%NoSave
%Mem=1900MB
#P OB98/GEN NMR

erre ene a

0 1
  C     -228.746    -208.543    -304.930
  O     -229.098    -209.546    -305.862
  H     -229.645    -207.987    -304.658
  H     -228.021    -207.852    -305.370
  H     -228.326    -209.000    -304.029
  P     -227.903    -210.459    -306.420
  C     -229.407    -212.434    -307.115
  O     -228.591    -211.358    -307.563
  C     -229.993    -213.190    -308.308
  O     -231.018    -212.366    -308.917
  C     -228.958    -213.520    -309.387
  O     -229.239    -214.811    -309.927
  C     -229.200    -212.462    -310.449
  O     -228.783    -212.885    -311.744
  C     -230.705    -212.226    -310.314
  N     -231.893    -209.498    -314.461
  C     -231.695    -210.820    -314.273
  N     -231.398    -211.468    -313.125
  C     -231.355    -210.608    -312.093
  C     -231.530    -209.237    -312.130
  C     -231.805    -208.675    -313.388
  N     -231.982    -207.326    -313.589
  N     -231.363    -208.695    -310.869
  C     -231.106    -209.726    -310.084
  N     -231.074    -210.901    -310.783
  O     -227.132    -211.214    -305.391
  O     -227.058    -209.403    -307.273
  H     -229.280    -213.695    -311.979
  H     -227.639    -208.833    -307.812
  H     -231.784    -211.443    -315.163
  H     -230.924    -209.671    -309.016
  H     -231.296    -212.951    -310.882
  H     -228.640    -211.553    -310.195
  H     -227.936    -213.492    -309.011
  H     -230.490    -214.098    -307.941
  H     -230.221    -212.055    -306.487
  H     -232.189    -207.009    -314.524
  H     -231.937    -206.698    -312.801
  H     -228.783    -213.101    -306.513
  P     -228.598    -216.094    -309.212
  C     -230.733    -217.340    -309.952
  O     -229.322    -217.411    -309.779
  O     -228.471    -216.018    -307.727
  O     -227.149    -216.184    -309.901
  H     -226.499    -216.469    -309.229
  H     -231.093    -218.273    -310.332
  H     -230.969    -216.558    -310.644
  H     -231.198    -217.135    -309.010

 6  7  8  9  10  11  12  13  14  15  25  28  32  33  34  35 0
 6-311+G(2d,p)
 ****
 36  39  40 0
 6-311+G(2d,p)
 ****
 1  2  3  4  5  16  17  18  19  20  21  22  23  24 0
 3-21G
 ****
 26  27  29  30  31  37  38  41  42  43  44  45  46  47 0
 3-21G
 ****
 48 0
 3-21G
 ****


