%nproc=1
%NoSave
%Mem=1900MB
#P OB98/GEN NMR

erre ene a

0 1
  C     -367.673    -985.084     475.807
  O     -367.218    -985.356     474.498
  H     -368.262    -985.935     476.158
  H     -368.308    -984.193     475.807
  H     -366.823    -984.936     476.482
  P     -366.332    -984.224     473.789
  C     -368.260    -983.120     472.450
  O     -367.325    -982.986     473.508
  C     -369.541    -982.346     472.768
  O     -369.254    -980.919     472.716
  C     -370.694    -982.623     471.792
  O     -371.928    -982.639     472.527
  C     -370.680    -981.405     470.887
  O     -371.938    -981.185     470.259
  C     -370.262    -980.322     471.876
  N     -371.054    -975.392     471.239
  C     -371.714    -976.311     472.028
  N     -372.752    -975.852     472.759
  N     -371.389    -977.580     472.093
  C     -370.317    -977.896     471.330
  C     -369.582    -977.081     470.498
  C     -369.968    -975.690     470.417
  O     -369.431    -974.830     469.720
  N     -368.591    -977.794     469.862
  C     -368.726    -979.029     470.310
  N     -369.760    -979.136     471.205
  O     -366.065    -984.817     472.324
  O     -365.063    -983.862     474.491
  H     -371.822    -980.474     469.597
  H     -365.210    -984.505     471.975
  H     -371.350    -974.435     471.216
  H     -368.114    -979.872     470.024
  H     -371.095    -979.992     472.513
  H     -369.918    -981.530     470.102
  H     -373.041    -974.887     472.784
  H     -370.584    -983.557     471.243
  H     -373.247    -976.510     473.359
  H     -369.833    -982.569     473.801
  H     -368.499    -984.178     472.314
  H     -367.818    -982.730     471.523
  P     -372.384    -984.034     473.170
  C     -372.939    -985.217     470.931
  O     -372.138    -985.202     472.100
  O     -373.983    -983.897     473.219
  O     -371.827    -984.279     474.534
  H     -374.278    -983.777     474.131
  H     -372.660    -986.049     470.318
  H     -372.792    -984.308     470.386
  H     -373.969    -985.306     471.206

 6  7  8  9  10  11  12  13  14  15  26  29  33  34 0
 6-311+G(2d,p)
 ****
 36  38  39  40  41 0
 6-311+G(2d,p)
 ****
 1  2  3  4  5  16  17  18  19  20  21  22  23  24  25 0
 3-21G
 ****
 27  28  30  31  32  35  37  42  43  44  45  46  47 0
 3-21G
 ****
 48  49 0
 3-21G
 ****


