%nproc=1
%NoSave
%Mem=1900MB
#P OB98/GEN NMR

erre ene a

0 1
  C      277.810     109.788    -195.121
  O      278.566     110.865    -194.606
  H      277.364     109.221    -194.300
  H      277.009     110.188    -195.749
  H      278.440     109.131    -195.729
  P      279.899     110.492    -193.796
  C      278.226     109.947    -191.882
  O      279.421     109.581    -192.561
  C      278.392     109.757    -190.373
  O      278.789     108.383    -190.114
  C      279.457     110.672    -189.755
  O      279.004     111.109    -188.473
  C      280.659     109.755    -189.594
  O      281.540     110.196    -188.567
  C      279.984     108.417    -189.312
  N      284.064     105.738    -187.801
  C      283.373     106.739    -187.217
  N      282.290     107.395    -187.683
  C      281.903     106.887    -188.868
  C      282.506     105.870    -189.587
  C      283.648     105.287    -189.011
  N      284.382     104.291    -189.618
  N      281.837     105.657    -190.779
  C      280.847     106.530    -190.772
  N      280.850     107.297    -189.641
  O      280.286     111.888    -193.107
  O      281.021     109.940    -194.611
  H      282.139     109.456    -188.336
  H      280.733     112.460    -193.761
  H      283.742     107.060    -186.243
  H      280.112     106.650    -191.559
  H      279.698     108.305    -188.256
  H      281.221     109.718    -190.534
  H      279.681     111.539    -190.376
  H      277.417     109.901    -189.893
  H      277.405     109.316    -192.242
  H      285.217     103.969    -189.159
  H      284.121     103.986    -190.547
  H      277.996     110.996    -192.100
  P      278.386     112.590    -188.391
  C      280.546     113.717    -187.498
  O      279.584     113.652    -188.540
  O      277.946     112.726    -186.857
  O      277.229     112.810    -189.310
  H      277.031     113.053    -186.800
  H      281.277     114.463    -187.733
  H      281.026     112.766    -187.396
  H      280.060     113.971    -186.579

 6  7  8  9  10  11  12  13  14  15  25  28  32  33  34  35 0
 6-311+G(2d,p)
 ****
 36  39  40 0
 6-311+G(2d,p)
 ****
 1  2  3  4  5  16  17  18  19  20  21  22  23  24 0
 3-21G
 ****
 26  27  29  30  31  37  38  41  42  43  44  45  46  47 0
 3-21G
 ****
 48 0
 3-21G
 ****


