%nproc=1
%NoSave
%Mem=1900MB
#P OB98/GEN NMR

erre ene a

0 1
  C      101.830    -147.970    -258.316
  O      102.149    -146.588    -258.355
  P      102.333    -145.820    -259.755
  C      104.787    -146.628    -259.754
  O      103.562    -146.557    -260.472
  C      105.798    -147.467    -260.533
  O      105.408    -148.855    -260.491
  C      105.905    -147.113    -262.010
  O      106.654    -145.920    -262.197
  C      106.544    -148.381    -262.566
  O      107.958    -148.379    -262.315
  C      105.864    -149.474    -261.717
  N      104.761    -150.131    -262.415
  C      105.078    -150.764    -263.620
  O      106.229    -150.770    -264.054
  N      104.078    -151.416    -264.301
  C      102.867    -151.415    -263.833
  N      101.932    -152.134    -264.512
  C      102.482    -150.712    -262.597
  C      103.469    -150.103    -261.942
  O      102.472    -144.341    -259.643
  O      101.087    -146.289    -260.636
  H      108.301    -149.239    -262.624
  H      100.285    -145.722    -260.519
  H      101.457    -150.729    -262.253
  H      103.274    -149.580    -261.016
  H      106.597    -150.234    -261.420
  H      106.395    -148.509    -263.643
  H      104.909    -146.982    -262.448
  H      106.776    -147.369    -260.043
  H      102.276    -152.742    -265.251
  H      104.599    -147.104    -258.787
  H      101.064    -152.421    -264.076
  H      105.166    -145.615    -259.581
  P      106.443    -145.118    -263.570
  C      108.301    -146.543    -264.688
  O      106.955    -146.100    -264.733
  O      107.554    -143.970    -263.501
  O      105.067    -144.569    -263.757
  H      107.147    -143.122    -263.239
  H      108.415    -147.371    -265.392
  H      108.561    -146.894    -263.687
  H      108.967    -145.731    -264.990
  H      101.751    -148.289    -257.298
  H      102.600    -148.528    -258.806
  H      100.898    -148.135    -258.815

 3  4  5  6  7  8  9  10  11  12  13  23  27  28  29  30  32 0
 6-311+G(2d,p)
 ****
 34  35 0
 6-311+G(2d,p)
 ****
 1  2  14  15  16  17  18  19  20  21  22  24  25  26 0
 3-21G
 ****
 31  33  36  37  38  39  40  41  42  43  44  45  46 0
 3-21G
 ****


