%nproc=1
%NoSave
%Mem=1900MB
#P OB98/GEN NMR

erre ene a

0 1
  C      124.474     240.412     602.214
  O      123.487     239.977     603.121
  H      124.859     241.379     602.551
  H      124.036     240.539     601.220
  H      125.308     239.707     602.163
  P      122.966     238.464     603.032
  C      120.571     238.568     603.987
  O      121.935     238.265     604.247
  C      119.759     238.589     605.283
  O      119.799     237.263     605.889
  C      120.281     239.585     606.329
  O      119.153     240.043     607.089
  C      121.166     238.700     607.181
  O      121.444     239.294     608.434
  C      120.341     237.412     607.213
  N      121.129     236.250     607.620
  C      120.755     235.629     608.806
  O      119.834     236.029     609.518
  N      121.503     234.551     609.180
  C      122.609     234.079     608.532
  O      123.264     233.126     608.931
  C      122.985     234.805     607.307
  C      122.238     235.838     606.911
  O      124.023     237.420     602.936
  O      122.001     238.453     601.752
  H      120.615     239.607     608.852
  H      122.011     237.572     601.334
  H      121.239     234.079     610.033
  H      123.862     234.467     606.778
  H      122.489     236.392     606.016
  H      119.497     237.508     607.914
  H      122.126     238.525     606.685
  H      120.812     240.429     605.889
  H      118.708     238.792     605.037
  H      120.178     237.794     603.312
  H      120.500     239.539     603.486
  P      118.682     241.574     607.083
  C      117.747     241.874     609.465
  O      117.437     241.737     608.081
  O      118.451     242.138     605.721
  O      119.858     242.364     607.832
  H      119.897     243.283     607.509
  H      116.841     241.975     610.025
  H      118.354     242.743     609.610
  H      118.278     241.007     609.799

 6  7  8  9  10  11  12  13  14  15  16  26  31  32  33  34  35 0
 6-311+G(2d,p)
 ****
 36  37 0
 6-311+G(2d,p)
 ****
 1  2  3  4  5  17  18  19  20  21  22  23  24  25 0
 3-21G
 ****
 27  28  29  30  38  39  40  41  42  43  44  45 0
 3-21G
 ****


