%nproc=1
%NoSave
%Mem=1900MB
#P OB98/GEN NMR

erre ene a

0 1
  C     -400.119     253.630      76.489
  O     -400.264     254.979      76.034
  P     -399.018     255.975      75.851
  C     -399.908     256.632      73.518
  O     -399.390     257.091      74.760
  C     -400.140     257.783      72.535
  O     -401.313     258.539      72.903
  C     -399.005     258.804      72.473
  O     -397.903     258.299      71.737
  C     -399.715     259.989      71.827
  O     -399.775     259.846      70.400
  C     -401.122     259.897      72.447
  N     -401.328     260.850      73.527
  C     -401.445     262.193      73.158
  O     -401.307     262.532      71.978
  N     -401.675     263.130      74.138
  C     -401.715     262.761      75.382
  N     -401.958     263.729      76.305
  C     -401.517     261.365      75.820
  C     -401.332     260.474      74.848
  O     -397.721     255.282      75.591
  O     -398.949     256.805      77.221
  H     -400.368     260.551      70.076
  H     -398.019     257.041      77.399
  H     -401.529     261.109      76.867
  H     -401.182     259.428      75.082
  H     -401.891     260.062      71.675
  H     -399.215     260.939      72.035
  H     -398.698     259.075      73.491
  H     -400.313     257.349      71.543
  H     -402.097     264.673      75.974
  H     -400.867     256.127      73.711
  H     -402.014     263.553      77.304
  H     -399.213     255.899      73.092
  P     -396.488     258.110      72.468
  C     -395.713     255.955      71.299
  O     -395.521     257.353      71.438
  O     -396.534     257.528      73.839
  O     -395.877     259.589      72.493
  H     -395.318     259.687      73.294
  H     -395.305     255.637      70.332
  H     -396.773     255.697      71.348
  H     -395.178     255.431      72.095
  H     -401.081     253.163      76.532
  H     -399.677     253.628      77.464
  H     -399.491     253.091      75.811

 3  4  5  6  7  8  9  10  11  12  13  23  27  28  29  30  32 0
 6-311+G(2d,p)
 ****
 34  35 0
 6-311+G(2d,p)
 ****
 1  2  14  15  16  17  18  19  20  21  22  24  25  26 0
 3-21G
 ****
 31  33  36  37  38  39  40  41  42  43  44  45  46 0
 3-21G
 ****


