%nproc=1
%NoSave
%Mem=1900MB
#P OB98/GEN NMR

erre ene a

0 1
  C      -37.243    -484.557     119.170
  O      -37.538    -484.038     120.450
  H      -36.349    -485.179     119.244
  H      -37.043    -483.738     118.476
  H      -38.064    -485.172     118.793
  P      -38.956    -483.331     120.690
  C      -39.280    -483.848     123.195
  O      -38.972    -482.858     122.224
  C      -38.875    -483.381     124.597
  O      -37.423    -483.455     124.714
  C      -39.286    -481.935     124.915
  O      -39.529    -481.861     126.324
  C      -38.027    -481.169     124.557
  O      -38.024    -479.883     125.131
  C      -36.951    -482.139     125.055
  N      -35.637    -481.858     124.483
  C      -34.616    -481.561     125.381
  O      -34.787    -481.504     126.597
  N      -33.394    -481.292     124.833
  C      -33.114    -481.229     123.499
  O      -32.006    -480.948     123.062
  C      -34.242    -481.505     122.595
  C      -35.434    -481.805     123.119
  O      -40.151    -484.116     120.266
  O      -38.844    -481.942     119.901
  H      -38.139    -479.947     126.105
  H      -39.724    -481.667     119.579
  H      -32.641    -481.089     125.470
  H      -34.057    -481.451     121.529
  H      -36.283    -482.014     122.478
  H      -36.860    -482.086     126.149
  H      -37.950    -481.041     123.472
  H      -40.164    -481.604     124.358
  H      -39.289    -484.081     125.333
  H      -38.732    -484.759     122.935
  H      -40.354    -484.062     123.173
  P      -40.997    -482.038     126.950
  C      -39.930    -483.220     128.976
  O      -40.861    -482.233     128.537
  O      -41.828    -483.079     126.274
  O      -41.675    -480.596     126.811
  H      -42.643    -480.692     126.740
  H      -39.928    -483.258     130.045
  H      -38.951    -482.967     128.626
  H      -40.213    -484.175     128.586

 6  7  8  9  10  11  12  13  14  15  16  26  31  32  33  34  35 0
 6-311+G(2d,p)
 ****
 36  37 0
 6-311+G(2d,p)
 ****
 1  2  3  4  5  17  18  19  20  21  22  23  24  25 0
 3-21G
 ****
 27  28  29  30  38  39  40  41  42  43  44  45 0
 3-21G
 ****


