%nproc=1
%NoSave
%Mem=1900MB
#P OB98/GEN NMR

erre ene a

0 1
  C     -374.544     -62.508     268.025
  O     -375.596     -61.570     268.178
  H     -373.748     -62.046     267.436
  H     -374.892     -63.405     267.505
  H     -374.140     -62.779     269.004
  P     -376.988     -62.093     268.785
  C     -378.384     -60.665     267.144
  O     -378.050     -61.981     267.582
  C     -379.182     -60.710     265.834
  O     -378.336     -61.134     264.751
  C     -380.333     -61.708     265.854
  O     -381.398     -61.342     266.708
  C     -380.599     -61.930     264.370
  O     -381.478     -60.963     263.803
  C     -379.181     -61.765     263.767
  N     -378.630     -63.035     263.309
  C     -378.684     -63.261     261.937
  O     -379.178     -62.465     261.136
  N     -378.186     -64.463     261.508
  C     -377.695     -65.457     262.310
  O     -377.297     -66.531     261.869
  C     -377.688     -65.171     263.754
  C     -378.153     -63.990     264.182
  O     -377.436     -61.424     270.052
  O     -376.772     -63.671     268.935
  H     -381.769     -61.316     262.936
  H     -377.446     -64.068     269.536
  H     -378.202     -64.637     260.516
  H     -377.311     -65.936     264.421
  H     -378.160     -63.757     265.246
  H     -379.212     -61.086     262.904
  H     -381.037     -62.911     264.188
  H     -379.952     -62.659     266.243
  H     -379.542     -59.696     265.615
  H     -377.448     -60.127     266.974
  H     -378.956     -60.152     267.922
  P     -382.462     -62.388     267.280
  C     -384.095     -60.688     268.379
  O     -383.896     -61.660     267.356
  O     -382.024     -63.226     268.440
  O     -382.648     -63.373     266.015
  H     -382.801     -64.275     266.362
  H     -385.086     -60.292     268.307
  H     -383.385     -59.896     268.261
  H     -383.963     -61.146     269.337

 6  7  8  9  10  11  12  13  14  15  16  26  31  32  33  34  35 0
 6-311+G(2d,p)
 ****
 36  37 0
 6-311+G(2d,p)
 ****
 1  2  3  4  5  17  18  19  20  21  22  23  24  25 0
 3-21G
 ****
 27  28  29  30  38  39  40  41  42  43  44  45 0
 3-21G
 ****


