%nproc=1
%NoSave
%Mem=1900MB
#P OB98/GEN NMR

erre ene a

0 1
  C     -713.947    -528.480     -45.375
  O     -712.628    -528.954     -45.022
  P     -712.340    -530.526     -45.137
  C     -710.245    -530.354     -46.655
  O     -710.776    -530.739     -45.399
  C     -708.899    -529.639     -46.480
  O     -709.053    -528.307     -45.975
  C     -707.975    -530.342     -45.482
  O     -707.271    -531.431     -46.074
  C     -707.002    -529.219     -45.143
  O     -706.018    -529.097     -46.189
  C     -707.925    -527.986     -45.130
  N     -706.673    -525.843     -40.657
  C     -705.933    -526.096     -41.772
  N     -706.340    -526.689     -42.918
  C     -707.634    -527.020     -42.854
  C     -708.511    -526.828     -41.780
  C     -707.970    -526.212     -40.637
  N     -708.720    -525.961     -39.511
  N     -709.766    -527.308     -42.077
  C     -709.675    -527.767     -43.313
  N     -708.405    -527.614     -43.812
  O     -713.013    -530.929     -46.531
  O     -712.915    -531.320     -44.008
  H     -705.487    -528.299     -46.000
  H     -713.383    -531.824     -46.477
  H     -704.902    -525.784     -41.730
  H     -710.472    -528.207     -43.876
  H     -707.427    -527.100     -45.566
  H     -706.458    -529.397     -44.217
  H     -708.517    -530.641     -44.577
  H     -708.398    -529.590     -47.454
  H     -710.937    -529.689     -47.175
  H     -708.278    -525.483     -38.741
  H     -709.697    -526.198     -39.505
  H     -710.134    -531.256     -47.283
  P     -706.450    -532.406     -45.095
  C     -708.190    -534.311     -44.863
  O     -706.970    -533.885     -45.417
  O     -707.070    -532.081     -43.656
  O     -704.986    -532.199     -45.123
  H     -706.401    -532.211     -42.953
  H     -708.535    -535.204     -45.423
  H     -708.960    -533.540     -44.962
  H     -708.064    -534.577     -43.811
  H     -713.990    -527.418     -45.250
  H     -714.674    -528.944     -44.741
  H     -714.154    -528.727     -46.395

 3  4  5  6  7  8  9  10  11  12  22  25  29  30  31  32 0
 6-311+G(2d,p)
 ****
 33  36  37 0
 6-311+G(2d,p)
 ****
 1  2  13  14  15  16  17  18  19  20  21  23  24  26 0
 3-21G
 ****
 27  28  34  35  38  39  40  41  42  43  44  45  46  47  48 0
 3-21G
 ****


