%nproc=1
%NoSave
%Mem=1900MB
#P OB98/GEN NMR

erre ene a

0 1
  C     1038.718    -331.981     -14.681
  O     1039.966    -332.501     -14.257
  H     1038.504    -332.369     -15.682
  H     1038.755    -330.896     -14.729
  H     1037.915    -332.300     -14.010
  P     1040.435    -332.222     -12.750
  C     1042.497    -330.964     -13.655
  O     1041.376    -330.920     -12.780
  C     1043.259    -329.645     -13.585
  O     1042.369    -328.540     -13.908
  C     1043.819    -329.323     -12.200
  O     1044.964    -330.100     -11.911
  C     1044.059    -327.830     -12.329
  O     1045.303    -327.561     -12.995
  C     1042.868    -327.379     -13.207
  N     1041.806    -326.752     -12.414
  C     1042.161    -325.627     -11.682
  O     1043.302    -325.149     -11.691
  N     1041.186    -325.098     -10.883
  C     1039.958    -325.665     -10.639
  O     1039.219    -325.292      -9.739
  C     1039.614    -326.805     -11.485
  C     1040.542    -327.309     -12.309
  O     1041.011    -333.398     -12.023
  O     1039.103    -331.686     -12.031
  H     1038.719    -332.409     -11.495
  H     1045.318    -326.587     -13.135
  H     1041.455    -324.300     -10.319
  H     1038.625    -327.238     -11.379
  H     1040.326    -328.186     -12.916
  H     1043.198    -326.662     -13.970
  H     1044.089    -327.345     -11.353
  H     1043.045    -329.496     -11.440
  H     1044.061    -329.660     -14.340
  H     1042.148    -331.122     -14.682
  H     1043.147    -331.794     -13.370
  P     1045.727    -329.928     -10.518
  C     1047.960    -329.382     -11.667
  O     1046.979    -328.948     -10.740
  O     1046.057    -331.213      -9.812
  O     1044.726    -329.041      -9.633
  H     1044.599    -329.474      -8.772
  H     1048.739    -328.652     -11.730
  H     1047.510    -329.507     -12.630
  H     1048.371    -330.315     -11.341

 6  7  8  9  10  11  12  13  14  15  16  27  31  32  33  34  35 0
 6-311+G(2d,p)
 ****
 36  37 0
 6-311+G(2d,p)
 ****
 1  2  3  4  5  17  18  19  20  21  22  23  24  25 0
 3-21G
 ****
 26  28  29  30  38  39  40  41  42  43  44  45 0
 3-21G
 ****


