%nproc=1
%NoSave
%Mem=1900MB
#P OB98/GEN NMR

erre ene a

0 1
  C     -201.979    -294.850    -409.871
  O     -200.977    -293.990    -409.373
  H     -201.830    -294.986    -410.948
  H     -202.971    -294.416    -409.710
  H     -201.919    -295.827    -409.381
  P     -201.078    -293.576    -407.827
  C     -198.521    -293.183    -408.054
  O     -199.744    -292.755    -407.479
  C     -197.435    -292.139    -407.782
  O     -197.469    -291.751    -406.383
  C     -196.019    -292.636    -408.025
  O     -195.669    -292.642    -409.396
  C     -195.212    -291.626    -407.225
  O     -194.960    -290.433    -407.975
  C     -196.142    -291.342    -406.023
  N     -195.670    -292.003    -404.807
  C     -194.304    -291.921    -404.567
  O     -193.516    -291.331    -405.313
  N     -193.852    -292.574    -403.450
  C     -194.611    -293.326    -402.603
  O     -194.138    -293.933    -401.658
  C     -196.047    -293.391    -402.917
  C     -196.504    -292.739    -403.994
  O     -200.883    -294.966    -407.063
  O     -202.350    -292.894    -407.439
  H     -201.738    -295.264    -406.700
  H     -194.253    -290.669    -408.612
  H     -192.862    -292.519    -403.262
  H     -196.683    -293.983    -402.267
  H     -197.560    -292.781    -404.252
  H     -196.186    -290.260    -405.828
  H     -194.251    -292.039    -406.930
  H     -195.881    -293.635    -407.580
  H     -197.647    -291.250    -408.389
  H     -198.641    -293.291    -409.140
  H     -198.246    -294.155    -407.634
  P     -194.871    -293.921    -409.960
  C     -195.305    -293.391    -412.505
  O     -194.380    -293.517    -411.433
  O     -196.083    -294.937    -410.200
  O     -193.815    -294.412    -409.031
  H     -196.919    -294.469    -410.376
  H     -194.782    -293.117    -413.397
  H     -196.025    -292.636    -412.268
  H     -195.804    -294.325    -412.657

 6  7  8  9  10  11  12  13  14  15  16  27  31  32  33  34  35 0
 6-311+G(2d,p)
 ****
 36  37 0
 6-311+G(2d,p)
 ****
 1  2  3  4  5  17  18  19  20  21  22  23  24  25 0
 3-21G
 ****
 26  28  29  30  38  39  40  41  42  43  44  45 0
 3-21G
 ****


