%nproc=1
%NoSave
%Mem=1900MB
#P OB98/GEN NMR

erre ene a

0 1
  C      130.361     317.403    -394.327
  O      129.661     317.828    -395.480
  H      129.692     317.477    -393.466
  H      131.230     318.047    -394.159
  H      130.680     316.359    -394.436
  P      130.400     317.623    -396.892
  C      132.383     318.935    -398.014
  O      131.302     318.938    -397.098
  C      132.973     320.338    -398.161
  O      131.955     321.209    -398.724
  C      133.431     320.958    -396.842
  O      134.598     321.751    -397.093
  C      132.278     321.866    -396.452
  O      132.683     322.907    -395.567
  C      131.793     322.336    -397.834
  N      130.408     322.808    -397.807
  C      130.213     324.169    -397.575
  O      131.183     324.917    -397.398
  N      128.932     324.663    -397.523
  C      127.929     323.844    -397.617
  N      126.683     324.382    -397.523
  C      128.089     322.388    -397.812
  C      129.337     321.941    -397.913
  O      129.197     317.824    -397.925
  O      131.125     316.329    -397.027
  H      132.920     322.511    -394.701
  H      128.623     318.583    -397.713
  H      127.218     321.743    -397.881
  H      129.547     320.890    -398.063
  H      132.426     323.149    -398.207
  H      131.493     321.287    -395.949
  H      133.653     320.204    -396.073
  H      133.792     320.301    -398.886
  H      126.620     325.390    -397.368
  H      132.052     318.573    -398.993
  H      125.829     323.844    -397.527
  H      133.146     318.242    -397.634
  P      136.042     321.061    -397.070
  C      137.794     320.336    -395.311
  O      136.649     321.131    -395.592
  O      136.972     321.481    -398.162
  O      135.683     319.495    -397.218
  H      136.337     319.099    -397.829
  H      138.088     320.482    -394.293
  H      138.596     320.624    -395.958
  H      137.560     319.304    -395.470

 6  7  8  9  10  11  12  13  14  15  16  26  30  31  32  33  35 0
 6-311+G(2d,p)
 ****
 37  38 0
 6-311+G(2d,p)
 ****
 1  2  3  4  5  17  18  19  20  21  22  23  24  25 0
 3-21G
 ****
 27  28  29  34  36  39  40  41  42  43  44  45  46 0
 3-21G
 ****


