%nproc=1
%NoSave
%Mem=1900MB
#P OB98/GEN NMR

erre ene a

0 1
  C      263.460    -304.264     311.032
  O      262.910    -304.028     309.753
  H      262.739    -303.938     311.786
  H      264.378    -303.678     311.152
  H      263.674    -305.324     311.183
  P      263.627    -304.670     308.470
  C      263.791    -302.326     307.410
  O      263.354    -303.667     307.247
  C      263.227    -301.428     306.302
  O      261.771    -301.417     306.403
  C      263.709    -299.968     306.375
  O      263.747    -299.465     305.029
  C      262.580    -299.315     307.147
  O      262.599    -297.907     306.999
  C      261.367    -300.042     306.560
  N      260.173    -299.911     307.400
  C      259.608    -298.646     307.479
  O      260.077    -297.652     306.911
  N      258.496    -298.533     308.267
  C      257.949    -299.529     309.022
  O      256.968    -299.366     309.743
  C      258.618    -300.837     308.935
  C      259.683    -300.971     308.135
  O      263.295    -306.098     308.191
  O      265.191    -304.466     308.748
  H      263.499    -297.561     307.176
  H      265.704    -305.184     308.329
  H      258.068    -297.623     308.327
  H      258.219    -301.650     309.531
  H      260.195    -301.920     308.049
  H      261.121    -299.647     305.562
  H      262.666    -299.528     308.220
  H      264.678    -299.856     306.856
  H      263.470    -301.875     305.328
  H      264.887    -302.317     307.369
  H      263.469    -301.947     308.388
  P      265.119    -299.376     304.198
  C      264.878    -297.242     302.758
  O      264.820    -298.670     302.781
  O      265.858    -300.673     304.089
  O      265.998    -298.288     304.974
  H      266.949    -298.476     304.844
  H      264.663    -296.892     301.770
  H      265.857    -296.920     303.045
  H      264.157    -296.845     303.442

 6  7  8  9  10  11  12  13  14  15  16  26  31  32  33  34  35 0
 6-311+G(2d,p)
 ****
 36  37 0
 6-311+G(2d,p)
 ****
 1  2  3  4  5  17  18  19  20  21  22  23  24  25 0
 3-21G
 ****
 27  28  29  30  38  39  40  41  42  43  44  45 0
 3-21G
 ****


