%nproc=1
%NoSave
%Mem=1900MB
#P OB98/GEN NMR

erre ene a

0 1
  C      -89.489     125.174     -47.904
  O      -90.372     125.020     -46.804
  P      -91.569     123.956     -46.946
  C      -93.802     123.890     -48.293
  O      -92.534     124.501     -48.107
  C      -94.218     123.950     -49.762
  O      -93.327     123.097     -50.532
  C      -95.649     123.483     -50.049
  O      -96.126     124.251     -51.163
  C      -95.462     122.037     -50.472
  O      -96.559     121.538     -51.234
  C      -94.144     122.137     -51.238
  N      -92.887     118.247     -54.221
  C      -93.693     119.342     -54.486
  N      -94.175     119.438     -55.742
  N      -93.989     120.257     -53.600
  C      -93.416     120.035     -52.393
  C      -92.631     118.971     -51.999
  C      -92.281     117.988     -52.999
  O      -91.503     117.050     -52.834
  N      -92.314     119.049     -50.667
  C      -92.831     120.196     -50.279
  N      -93.468     120.854     -51.299
  O      -92.414     124.194     -45.611
  O      -91.153     122.528     -47.116
  H      -97.372     121.652     -50.699
  H      -92.143     123.571     -44.906
  H      -92.675     117.587     -54.951
  H      -92.775     120.606     -49.282
  H      -94.280     122.490     -52.264
  H      -95.355     121.402     -49.582
  H      -93.964     118.785     -56.480
  H      -96.324     123.592     -49.197
  H      -94.744     120.250     -55.968
  H      -94.071     124.981     -50.124
  H      -94.545     124.430     -47.698
  H      -93.764     122.852     -47.941
  P      -97.639     124.013     -51.644
  C      -98.747     122.410     -53.348
  O      -97.683     122.629     -52.443
  O      -97.820     125.111     -52.801
  O      -98.669     124.196     -50.578
  H      -98.743     125.419     -52.817
  H      -98.433     121.652     -54.078
  H      -99.010     123.326     -53.889
  H      -99.621     122.042     -52.807
  H      -88.749     125.910     -47.667
  H      -90.042     125.489     -48.764
  H      -89.010     124.240     -48.110

 3  4  5  6  7  8  9  10  11  12  23  26  30  31 0
 6-311+G(2d,p)
 ****
 33  35  36  37  38 0
 6-311+G(2d,p)
 ****
 1  2  13  14  15  16  17  18  19  20  21  22  24  25 0
 3-21G
 ****
 27  28  29  32  34  39  40  41  42  43  44  45  46  47  48  49 0
 3-21G
 ****


