%nproc=1
%NoSave
%Mem=1900MB
#P OB98/GEN NMR

erre ene a

0 1
  C       74.784    -206.748     390.616
  O       76.103    -206.567     390.146
  H       74.483    -205.849     391.168
  H       74.740    -207.601     391.296
  H       74.088    -206.899     389.786
  P       76.717    -207.651     389.133
  C       77.439    -209.092     391.146
  O       77.848    -208.451     389.943
  C       78.660    -209.654     391.878
  O       78.286    -210.092     393.201
  C       79.287    -210.868     391.195
  O       80.040    -210.481     390.061
  C       80.105    -211.446     392.343
  O       81.337    -210.729     392.505
  C       79.158    -211.194     393.548
  N       78.383    -212.376     393.929
  C       78.755    -213.002     395.115
  O       79.701    -212.626     395.806
  N       78.002    -214.092     395.476
  C       76.998    -214.652     394.737
  O       76.390    -215.663     395.083
  C       76.682    -213.970     393.476
  C       77.372    -212.883     393.134
  O       77.152    -207.129     387.805
  O       75.547    -208.732     388.987
  H       81.653    -210.909     393.413
  H       75.063    -208.584     388.150
  H       78.259    -214.563     396.329
  H       75.889    -214.391     392.859
  H       77.153    -212.369     392.207
  H       79.739    -210.870     394.426
  H       80.363    -212.492     392.190
  H       78.511    -211.593     390.919
  H       79.394    -208.842     391.983
  H       76.758    -209.911     390.896
  H       76.911    -208.367     391.773
  P       79.870    -211.244     388.665
  C       80.706    -213.466     389.627
  O       80.922    -212.463     388.645
  O       79.905    -210.372     387.452
  O       78.458    -211.988     388.800
  H       77.786    -211.528     388.252
  H       81.453    -214.226     389.531
  H       79.737    -213.898     389.488
  H       80.765    -213.029     390.602

 6  7  8  9  10  11  12  13  14  15  16  26  31  32  33  34  35 0
 6-311+G(2d,p)
 ****
 36  37 0
 6-311+G(2d,p)
 ****
 1  2  3  4  5  17  18  19  20  21  22  23  24  25 0
 3-21G
 ****
 27  28  29  30  38  39  40  41  42  43  44  45 0
 3-21G
 ****


