%nproc=1
%NoSave
%Mem=1900MB
#P OB98/GEN NMR

erre ene a

0 1
  C     -347.355     556.678    -899.275
  O     -347.184     557.247    -897.995
  P     -345.675     557.372    -897.455
  C     -345.891     555.162    -896.105
  O     -345.622     556.567    -896.065
  C     -345.609     554.531    -894.745
  O     -344.232     554.797    -894.345
  C     -346.481     555.102    -893.615
  O     -347.794     554.540    -893.645
  C     -345.658     554.674    -892.395
  O     -345.996     553.350    -891.965
  C     -344.210     554.753    -892.905
  N     -343.447     555.861    -892.355
  C     -342.820     555.631    -891.115
  O     -342.945     554.535    -890.575
  N     -342.124     556.677    -890.535
  C     -342.028     557.822    -891.135
  N     -341.331     558.799    -890.545
  C     -342.712     558.109    -892.435
  C     -343.382     557.067    -892.965
  O     -345.581     558.925    -896.995
  O     -344.602     557.034    -898.465
  H     -345.424     553.145    -891.215
  H     -344.656     559.248    -897.035
  H     -342.629     559.095    -892.885
  H     -343.908     557.209    -893.935
  H     -343.659     553.812    -892.655
  H     -345.856     555.335    -891.525
  H     -346.501     556.192    -893.675
  H     -345.740     553.456    -894.825
  H     -340.904     558.571    -889.635
  H     -345.233     554.679    -896.845
  H     -341.202     559.710    -890.925
  H     -346.915     555.016    -896.405
  P     -348.983     555.532    -894.015
  C     -348.922     556.858    -891.785
  O     -349.640     555.916    -892.575
  O     -350.094     554.538    -894.615
  O     -348.686     556.698    -894.935
  H     -350.848     555.042    -894.975
  H     -349.559     557.133    -890.935
  H     -348.740     557.766    -892.385
  H     -347.975     556.432    -891.445
  H     -348.397     556.651    -899.517
  H     -346.962     555.683    -899.278
  H     -346.835     557.269    -900.000

 3  4  5  6  7  8  9  10  11  12  13  21  23  27  28  29  30  32 0
 6-311+G(2d,p)
 ****
 34  35 0
 6-311+G(2d,p)
 ****
 1  2  14  15  16  17  18  19  20  22  24  25  26 0
 3-21G
 ****
 31  33  36  37  38  39  40  41  42  43  44  45  46 0
 3-21G
 ****


