%nproc=1
%NoSave
%Mem=1900MB
#P OB98/GEN NMR

erre ene a

0 1
  C      449.780    -267.211    1727.403
  O      451.018    -267.210    1728.118
  P      451.137    -266.637    1729.640
  C      452.066    -268.865    1730.572
  O      451.038    -267.899    1730.665
  C      452.224    -269.616    1731.907
  O      452.716    -268.693    1732.930
  C      450.929    -270.252    1732.477
  O      451.320    -271.525    1733.037
  C      450.508    -269.261    1733.531
  O      449.603    -269.778    1734.475
  C      451.854    -268.866    1734.105
  N      451.928    -267.692    1734.979
  C      451.735    -267.862    1736.329
  O      451.412    -268.978    1736.808
  N      451.789    -266.782    1737.149
  C      452.003    -265.586    1736.721
  N      452.085    -264.552    1737.556
  C      452.240    -265.357    1735.220
  C      452.170    -266.458    1734.441
  O      450.208    -265.534    1729.947
  O      452.659    -266.149    1729.771
  H      452.709    -265.352    1730.343
  H      449.970    -270.542    1734.926
  H      452.461    -264.353    1734.864
  H      452.325    -266.323    1733.372
  H      452.263    -269.746    1734.681
  H      450.020    -268.417    1733.026
  H      450.177    -270.456    1731.720
  H      453.010    -270.379    1731.793
  H      451.935    -264.748    1738.538
  H      453.016    -268.380    1730.320
  H      452.284    -263.594    1737.257
  H      451.798    -269.592    1729.749
  P      451.038    -272.880    1732.283
  C      453.454    -273.742    1732.652
  O      452.425    -273.463    1731.716
  O      450.339    -272.334    1730.914
  O      450.104    -273.864    1732.915
  H      449.779    -273.036    1730.546
  H      453.914    -274.736    1732.381
  H      453.099    -273.816    1733.680
  H      454.211    -272.998    1732.604
  H      449.931    -267.629    1726.430
  H      449.422    -266.207    1727.309
  H      449.061    -267.798    1727.936

 3  4  5  6  7  8  9  10  11  12  13  24  27  28  29  30  32 0
 6-311+G(2d,p)
 ****
 34  35 0
 6-311+G(2d,p)
 ****
 1  2  14  15  16  17  18  19  20  21  22  23  25  26 0
 3-21G
 ****
 31  33  36  37  38  39  40  41  42  43  44  45  46 0
 3-21G
 ****


