%nproc=1
%NoSave
%Mem=1900MB
#P OB98/GEN NMR

erre ene a

0 1
  C       63.571    -177.689     -50.799
  O       62.694    -176.791     -51.453
  H       64.580    -177.542     -51.194
  H       63.272    -178.725     -50.977
  H       63.582    -177.483     -49.725
  P       61.114    -176.998     -51.256
  C       59.387    -178.725     -52.091
  O       60.769    -178.388     -51.991
  C       59.187    -180.241     -52.104
  O       59.724    -180.837     -50.904
  C       57.729    -180.677     -52.134
  O       57.043    -180.363     -53.323
  C       57.826    -182.130     -51.693
  O       58.172    -183.004     -52.768
  C       58.991    -182.062     -50.672
  N       58.524    -182.159     -49.292
  C       57.977    -183.381     -48.917
  O       57.856    -184.337     -49.686
  N       57.535    -183.465     -47.624
  C       57.542    -182.454     -46.708
  O       57.110    -182.588     -45.567
  C       58.097    -181.173     -47.172
  C       58.558    -181.084     -48.425
  O       60.250    -175.851     -51.691
  O       60.965    -177.363     -49.705
  H       57.390    -183.063     -53.349
  H       60.028    -177.274     -49.404
  H       57.148    -184.349     -47.329
  H       58.108    -180.344     -46.476
  H       58.973    -180.148     -48.792
  H       59.698    -182.885     -50.848
  H       56.889    -182.496     -51.267
  H       57.197    -180.147     -51.333
  H       59.743    -180.650     -52.955
  H       59.008    -178.305     -53.029
  H       58.841    -178.278     -51.254
  P       55.462    -180.484     -53.496
  C       53.727    -182.406     -53.880
  O       55.090    -182.028     -53.720
  O       54.801    -179.468     -54.371
  O       54.949    -180.233     -51.982
  H       54.092    -179.764     -52.044
  H       53.664    -183.465     -54.018
  H       53.317    -181.910     -54.735
  H       53.175    -182.127     -53.007

 6  7  8  9  10  11  12  13  14  15  16  26  31  32  33  34  35 0
 6-311+G(2d,p)
 ****
 36  37 0
 6-311+G(2d,p)
 ****
 1  2  3  4  5  17  18  19  20  21  22  23  24  25 0
 3-21G
 ****
 27  28  29  30  38  39  40  41  42  43  44  45 0
 3-21G
 ****


