%nproc=1
%NoSave
%Mem=1900MB
#P OB98/GEN NMR

erre ene a

0 1
  C      868.821    -575.799      89.629
  O      869.122    -574.501      90.107
  P      870.629    -574.151      90.556
  C      870.261    -571.864      91.684
  O      870.538    -573.242      91.890
  C      869.787    -571.231      92.984
  O      868.528    -571.826      93.409
  C      870.730    -571.424      94.157
  O      871.845    -570.539      94.068
  C      869.795    -571.147      95.344
  O      869.677    -569.729      95.554
  C      868.490    -571.746      94.850
  N      864.774    -574.955      96.278
  C      864.739    -573.652      95.893
  N      865.789    -572.851      95.561
  C      866.958    -573.526      95.679
  C      867.137    -574.820      96.087
  C      865.984    -575.581      96.376
  N      865.985    -576.913      96.706
  N      868.490    -575.145      96.098
  C      869.102    -574.044      95.724
  N      868.210    -573.051      95.400
  O      871.513    -573.618      89.485
  O      871.182    -575.559      91.116
  H      869.324    -569.350      94.720
  H      871.960    -575.811      90.588
  H      863.763    -573.203      95.850
  H      870.178    -573.917      95.650
  H      867.629    -571.099      95.109
  H      870.164    -571.601      96.280
  H      871.064    -572.462      94.202
  H      869.614    -570.164      92.822
  H      869.466    -571.777      90.928
  H      865.096    -577.383      96.739
  H      866.816    -577.465      96.473
  H      871.168    -571.364      91.319
  P      873.292    -571.054      94.490
  C      873.369    -568.912      95.930
  O      873.672    -570.305      95.848
  O      874.356    -570.991      93.420
  O      873.048    -572.560      94.974
  H      873.840    -573.107      94.775
  H      874.120    -568.366      95.377
  H      873.367    -568.619      96.970
  H      872.359    -568.727      95.504
  H      867.782    -575.855      89.378
  H      869.044    -576.519      90.388
  H      869.409    -576.004      88.759

 3  4  5  6  7  8  9  10  11  12  22  25  29  30  31  32 0
 6-311+G(2d,p)
 ****
 33  36  37 0
 6-311+G(2d,p)
 ****
 1  2  13  14  15  16  17  18  19  20  21  23  24  26 0
 3-21G
 ****
 27  28  34  35  38  39  40  41  42  43  44  45  46  47  48 0
 3-21G
 ****


