%nproc=1
%NoSave
%Mem=1900MB
#P OB98/GEN NMR

erre ene a

0 1
  C       24.482    -156.700     269.337
  O       23.783    -157.943     269.362
  P       22.253    -157.967     269.850
  C       21.863    -160.090     268.448
  O       21.689    -159.468     269.716
  C       21.896    -161.623     268.551
  O       23.173    -162.080     269.079
  C       20.792    -162.222     269.441
  O       20.398    -163.463     268.848
  C       21.525    -162.464     270.748
  O       20.850    -163.383     271.591
  C       22.889    -162.922     270.219
  N       23.936    -162.838     271.226
  C       24.514    -164.035     271.646
  O       24.066    -165.111     271.251
  N       25.569    -163.981     272.537
  C       25.900    -162.842     273.065
  N       26.958    -162.821     273.921
  C       25.191    -161.575     272.773
  C       24.246    -161.646     271.835
  O       21.376    -156.914     269.259
  O       22.380    -157.782     271.442
  H       21.421    -163.591     272.364
  H       21.619    -157.264     271.757
  H       25.445    -160.669     273.297
  H       23.673    -160.773     271.551
  H       22.841    -163.960     269.857
  H       21.625    -161.517     271.296
  H       19.913    -161.577     269.538
  H       21.802    -162.030     267.529
  H       27.423    -163.700     274.131
  H       22.796    -159.740     267.998
  H       27.310    -161.967     274.335
  H       21.064    -159.755     267.773
  P       18.848    -163.700     268.490
  C       19.425    -165.156     266.412
  O       18.737    -165.055     267.640
  O       18.599    -162.582     267.357
  O       17.878    -163.518     269.616
  H       17.652    -162.354     267.345
  H       19.469    -166.208     266.114
  H       20.448    -164.775     266.495
  H       18.882    -164.598     265.636
  H       25.481    -156.860     268.990
  H       24.509    -156.286     270.323
  H       23.980    -156.022     268.679

 3  4  5  6  7  8  9  10  11  12  13  23  27  28  29  30  32 0
 6-311+G(2d,p)
 ****
 34  35 0
 6-311+G(2d,p)
 ****
 1  2  14  15  16  17  18  19  20  21  22  24  25  26 0
 3-21G
 ****
 31  33  36  37  38  39  40  41  42  43  44  45  46 0
 3-21G
 ****


