%nproc=1
%NoSave
%Mem=1900MB
#P OB98/GEN NMR

erre ene a

0 1
  C      587.733     476.675     -25.493
  O      588.933     475.922     -25.430
  P      589.838     475.708     -26.724
  C      591.434     477.638     -25.931
  O      590.691     477.035     -26.968
  C      592.911     477.235     -26.069
  O      593.407     477.614     -27.370
  C      593.776     477.897     -25.014
  O      593.949     477.049     -23.890
  C      595.069     478.169     -25.766
  O      595.885     476.987     -25.811
  C      594.539     478.512     -27.180
  N      594.071     479.888     -27.443
  C      594.933     480.807     -28.029
  O      596.077     480.541     -28.378
  N      594.440     482.080     -28.178
  C      593.182     482.485     -27.838
  O      592.833     483.661     -27.754
  C      592.239     481.414     -27.488
  C      592.725     480.196     -27.279
  O      588.772     475.737     -27.920
  O      590.674     474.462     -26.739
  H      595.285     476.235     -25.968
  H      588.547     474.828     -28.195
  H      595.104     482.787     -28.475
  H      591.195     481.671     -27.344
  H      592.060     479.389     -26.977
  H      595.281     478.270     -27.951
  H      595.667     478.938     -25.268
  H      593.346     478.865     -24.710
  H      592.984     476.143     -25.988
  H      591.044     477.324     -24.957
  H      591.336     478.732     -25.978
  P      593.704     477.626     -22.418
  C      591.371     476.572     -22.293
  O      592.106     477.779     -22.280
  O      594.503     478.826     -22.055
  O      594.061     476.377     -21.478
  H      594.982     476.467     -21.140
  H      590.335     476.807     -22.016
  H      591.777     475.858     -21.585
  H      591.374     476.158     -23.307
  H      587.276     476.700     -24.526
  H      587.063     476.220     -26.192
  H      587.954     477.673     -25.809

 3  4  5  6  7  8  9  10  11  12  13  23  28  29  30  31  32 0
 6-311+G(2d,p)
 ****
 33  34 0
 6-311+G(2d,p)
 ****
 1  2  14  15  16  17  18  19  20  21  22  24  25  26  27 0
 3-21G
 ****
 35  36  37  38  39  40  41  42  43  44  45 0
 3-21G
 ****


