%nproc=1
%NoSave
%Mem=1900MB
#P OB98/GEN NMR

erre ene a

0 1
  C      613.486    -506.936     929.307
  O      614.160    -508.197     929.435
  P      615.193    -508.348     930.654
  C      613.397    -508.425     932.540
  O      614.498    -507.725     931.956
  C      613.467    -508.376     934.058
  O      613.267    -507.024     934.538
  C      612.412    -509.207     934.771
  O      612.775    -510.579     934.803
  C      612.451    -508.602     936.161
  O      613.529    -509.184     936.933
  C      612.718    -507.122     935.875
  N      609.692    -504.385     938.891
  C      610.840    -505.104     939.192
  N      611.254    -505.059     940.488
  N      611.514    -505.787     938.317
  C      611.006    -505.725     937.071
  C      609.880    -505.049     936.646
  C      609.120    -504.313     937.629
  O      608.078    -503.687     937.424
  N      609.680    -505.202     935.299
  C      610.697    -505.939     934.900
  N      611.525    -506.292     935.942
  O      616.329    -507.270     930.298
  O      615.757    -509.716     930.815
  H      613.288    -510.110     937.096
  H      617.172    -507.540     930.690
  H      609.211    -503.876     939.611
  H      610.888    -506.249     933.873
  H      613.465    -506.698     936.556
  H      611.525    -508.801     936.728
  H      610.825    -504.492     941.208
  H      611.424    -509.066     934.317
  H      612.111    -505.536     940.719
  H      614.481    -508.688     934.357
  H      613.420    -509.468     932.216
  H      612.462    -507.991     932.168
  P      611.598    -511.648     935.012
  C      610.952    -511.969     932.513
  O      610.598    -511.438     933.777
  O      610.792    -511.063     936.258
  O      612.068    -513.049     935.238
  H      610.362    -511.790     936.762
  H      611.364    -512.973     932.614
  H      611.701    -511.315     932.035
  H      610.067    -512.007     931.873
  H      612.831    -506.966     928.462
  H      614.208    -506.158     929.171
  H      612.917    -506.744     930.193

 3  4  5  6  7  8  9  10  11  12  23  26  30  31  33  0
 6-311+G(2d,p)
 ****
 35  36  37  38 0
 6-311+G(2d,p)
 ****
 1  2  13  14  15  16  17  18  19  20  21  22  24  25  27  28  29 0
 3-21G
 ****
 32  34  39  40  41  42  43  44  45  46  47  48  49 0
 3-21G
 ****


