%nproc=1
%NoSave
%Mem=1900MB
#P OB98/GEN NMR

erre ene a

0 1
  C      610.695     -36.138     -45.328
  O      609.657     -36.034     -44.374
  H      610.637     -35.278     -46.002
  H      610.591     -37.051     -45.917
  H      611.666     -36.124     -44.828
  P      609.415     -37.250     -43.361
  C      609.175     -35.706     -41.311
  O      608.540     -36.665     -42.150
  C      608.975     -34.293     -41.859
  O      607.551     -34.066     -42.043
  C      609.516     -33.195     -40.938
  O      610.071     -32.159     -41.747
  C      608.267     -32.707     -40.231
  O      608.424     -31.388     -39.745
  C      607.193     -32.880     -41.310
  N      605.861     -32.980     -40.718
  C      605.064     -31.830     -40.768
  O      605.491     -30.802     -41.303
  N      603.841     -31.839     -40.154
  C      603.459     -32.892     -39.500
  N      602.249     -32.825     -38.881
  C      604.275     -34.119     -39.397
  C      605.448     -34.096     -40.021
  O      610.628     -38.010     -42.943
  O      608.375     -38.188     -44.138
  H      608.648     -30.791     -40.490
  H      608.856     -38.850     -44.669
  H      603.914     -34.967     -38.831
  H      606.123     -34.948     -39.994
  H      607.207     -32.034     -42.009
  H      608.049     -33.357     -39.374
  H      610.268     -33.563     -40.229
  H      609.434     -34.233     -42.854
  H      601.736     -31.953     -38.959
  H      610.243     -35.941     -41.286
  H      601.866     -33.558     -38.307
  H      608.772     -35.779     -40.297
  P      611.663     -31.974     -41.860
  C      611.576     -31.148     -44.280
  O      611.982     -30.836     -42.952
  O      612.428     -33.242     -42.042
  O      612.065     -31.271     -40.474
  H      612.972     -31.535     -40.231
  H      611.829     -30.337     -44.930
  H      610.518     -31.306     -44.302
  H      612.076     -32.036     -44.607

 6  7  8  9  10  11  12  13  14  15  16  26  30  31  32  33  35 0
 6-311+G(2d,p)
 ****
 37  38 0
 6-311+G(2d,p)
 ****
 1  2  3  4  5  17  18  19  20  21  22  23  24  25 0
 3-21G
 ****
 27  28  29  34  36  39  40  41  42  43  44  45  46 0
 3-21G
 ****


