%nproc=1
%NoSave
%Mem=1900MB
#P OB98/GEN NMR

erre ene a

0 1
  C      303.543       9.651      -7.100
  O      304.833       9.397      -6.518
  P      306.143       9.493      -7.448
  C      306.654      11.955      -6.723
  O      307.117      10.618      -6.849
  C      307.388      12.863      -7.713
  O      306.717      14.138      -7.825
  C      308.818      13.199      -7.319
  O      309.705      12.122      -7.569
  C      309.090      14.422      -8.184
  O      309.477      14.036      -9.515
  C      307.715      15.117      -8.197
  N      307.666      16.287      -7.323
  C      308.026      17.501      -7.897
  O      308.425      17.607      -9.057
  N      307.946      18.595      -7.078
  C      307.615      18.584      -5.753
  O      307.580      19.598      -5.066
  C      307.325      17.261      -5.183
  C      307.370      16.191      -5.979
  O      305.567      10.219      -8.758
  O      306.782       8.192      -7.803
  H      309.399      14.834     -10.071
  H      306.095       9.954      -9.536
  H      308.175      19.491      -7.483
  H      307.081      17.205      -4.129
  H      307.157      15.204      -5.572
  H      307.461      15.430      -9.216
  H      309.898      15.046      -7.786
  H      308.854      13.492      -6.262
  H      307.364      12.380      -8.702
  H      306.846      12.309      -5.704
  H      305.575      11.975      -6.905
  P      310.730      11.742      -6.390
  C      309.702       9.997      -4.739
  O      310.351      10.245      -5.968
  O      310.181      12.666      -5.200
  O      312.157      11.982      -6.759
  H      309.216      12.774      -5.239
  H      309.033      10.815      -4.465
  H      310.453       9.866      -3.955
  H      309.121       9.075      -4.829
  H      302.787       9.546      -6.350
  H      303.363       8.950      -7.889
  H      303.519      10.645      -7.494

 3  4  5  6  7  8  9  10  11  12  13  23  28  29  30  31  32 0
 6-311+G(2d,p)
 ****
 33  34 0
 6-311+G(2d,p)
 ****
 1  2  14  15  16  17  18  19  20  21  22  24  25  26 0
 3-21G
 ****
 27  35  36  37  38  39  40  41  42  43  44  45 0
 3-21G
 ****


