%nproc=1
%NoSave
%Mem=1900MB
#P OB98/GEN NMR

erre ene a

0 1
  C      152.012    -686.479    -118.110
  O      152.133    -687.876    -117.926
  P      152.898    -688.485    -116.657
  C      151.058    -689.584    -115.247
  O      151.897    -688.451    -115.409
  C      150.743    -689.837    -113.777
  O      151.952    -690.201    -113.071
  C      150.123    -688.631    -113.056
  O      149.125    -689.143    -112.153
  C      151.294    -688.048    -112.284
  O      150.878    -687.261    -111.188
  C      152.052    -689.330    -111.931
  N      153.439    -689.075    -111.581
  C      153.745    -688.925    -110.233
  O      152.828    -688.891    -109.390
  N      155.054    -688.811    -109.855
  C      155.975    -688.655    -110.769
  N      157.263    -688.608    -110.357
  C      155.660    -688.552    -112.207
  C      154.392    -688.810    -112.545
  O      154.244    -687.899    -116.392
  O      153.010    -690.049    -116.981
  H      153.947    -690.324    -116.900
  H      150.307    -686.530    -111.520
  H      156.430    -688.296    -112.914
  H      154.074    -688.774    -113.586
  H      151.571    -689.836    -111.080
  H      151.892    -687.420    -112.952
  H      149.651    -687.922    -113.738
  H      150.062    -690.698    -113.719
  H      157.448    -688.727    -109.367
  H      151.595    -690.458    -115.647
  H      158.038    -688.816    -110.988
  H      150.134    -689.463    -115.830
  P      147.941    -688.155    -111.702
  C      146.036    -689.499    -112.834
  O      146.749    -688.283    -112.761
  O      148.557    -686.716    -112.051
  O      147.563    -688.198    -110.258
  H      148.149    -686.041    -111.480
  H      145.322    -689.424    -113.657
  H      145.487    -689.675    -111.908
  H      146.710    -690.329    -113.047
  H      151.470    -686.284    -119.012
  H      152.987    -686.042    -118.178
  H      151.488    -686.054    -117.280

 3  4  5  6  7  8  9  10  11  12  13  24  27  28  29  30  32 0
 6-311+G(2d,p)
 ****
 34  35 0
 6-311+G(2d,p)
 ****
 1  2  14  15  16  17  18  19  20  21  22  23  25  26 0
 3-21G
 ****
 31  33  36  37  38  39  40  41  42  43  44  45  46 0
 3-21G
 ****


