%nproc=1
%NoSave
%Mem=1900MB
#P OB98/GEN NMR

erre ene a

0 1
  C     -132.335    -239.719     -32.772
  O     -133.397    -239.892     -33.685
  P     -134.717    -238.987     -33.611
  C     -135.232    -236.477     -33.879
  O     -134.227    -237.454     -33.630
  C     -135.046    -235.275     -32.940
  O     -135.421    -235.675     -31.586
  C     -133.588    -234.768     -32.901
  O     -133.441    -233.368     -33.149
  C     -133.110    -235.244     -31.538
  O     -131.987    -234.533     -31.045
  C     -134.397    -235.170     -30.709
  N     -134.306    -235.924     -29.462
  C     -133.692    -235.292     -28.383
  O     -133.237    -234.151     -28.411
  N     -133.552    -236.044     -27.251
  C     -133.851    -237.369     -27.127
  O     -133.608    -238.009     -26.111
  C     -134.461    -237.989     -28.314
  C     -134.679    -237.250     -29.401
  O     -135.655    -239.317     -32.498
  O     -135.353    -239.152     -35.071
  H     -132.245    -233.600     -30.941
  H     -134.779    -238.862     -35.803
  H     -133.109    -235.601     -26.461
  H     -134.699    -239.044     -28.248
  H     -135.129    -237.680     -30.290
  H     -134.657    -234.135     -30.469
  H     -132.803    -236.292     -31.637
  H     -132.987    -235.242     -33.683
  H     -135.727    -234.485     -33.270
  H     -136.212    -236.924     -33.694
  H     -135.201    -236.168     -34.928
  P     -132.090    -232.658     -33.621
  C     -130.670    -232.757     -35.799
  O     -131.546    -233.427     -34.912
  O     -131.079    -232.432     -32.546
  O     -132.591    -231.259     -34.222
  H     -131.894    -230.588     -34.113
  H     -130.801    -233.176     -36.803
  H     -129.637    -232.925     -35.481
  H     -130.876    -231.686     -35.833
  H     -131.556    -240.418     -32.994
  H     -132.690    -239.885     -31.776
  H     -131.954    -238.723     -32.853

 3  4  5  6  7  8  9  10  11  12  13  23  28  29  30  31  32 0
 6-311+G(2d,p)
 ****
 33  34 0
 6-311+G(2d,p)
 ****
 1  2  14  15  16  17  18  19  20  21  22  24  25  26  27 0
 3-21G
 ****
 35  36  37  38  39  40  41  42  43  44  45 0
 3-21G
 ****


