%nproc=1
%NoSave
%Mem=1900MB
#P OB98/GEN NMR

erre ene a

0 1
  C     -115.456      -6.043     141.838
  O     -116.375      -6.494     140.857
  P     -117.762      -7.116     141.380
  C     -118.428      -9.293     142.649
  O     -117.448      -8.608     141.873
  C     -118.527     -10.748     142.200
  O     -119.111     -10.824     140.883
  C     -117.191     -11.474     142.093
  O     -116.694     -11.823     143.375
  C     -117.586     -12.658     141.217
  O     -118.250     -13.657     142.008
  C     -118.581     -12.013     140.236
  N     -117.434     -13.563     135.488
  C     -118.026     -14.196     136.528
  N     -118.275     -13.724     137.767
  C     -117.855     -12.454     137.884
  C     -117.219     -11.688     136.922
  C     -117.012     -12.289     135.671
  N     -116.404     -11.641     134.615
  N     -116.914     -10.435     137.415
  C     -117.369     -10.442     138.651
  N     -117.961     -11.632     138.976
  O     -118.592      -7.338     140.033
  O     -118.504      -6.260     142.363
  H     -117.705     -13.804     142.807
  H     -119.546      -7.195     140.181
  H     -118.341     -15.219     136.336
  H     -117.301      -9.611     139.344
  H     -119.428     -12.668     140.003
  H     -116.729     -13.136     140.731
  H     -116.458     -10.847     141.568
  H     -119.190     -11.274     142.902
  H     -119.402      -8.813     142.512
  H     -116.162     -12.191     133.805
  H     -115.965     -10.746     134.796
  H     -118.153      -9.226     143.707
  P     -115.107     -12.016     143.520
  C     -113.452     -13.725     142.545
  O     -114.814     -13.391     142.740
  O     -114.973     -12.449     145.054
  O     -114.289     -10.843     143.099
  H     -115.600     -13.154     145.291
  H     -113.397     -14.700     142.055
  H     -112.934     -13.780     143.506
  H     -112.972     -12.978     141.905
  H     -114.582      -5.656     141.357
  H     -115.181      -6.860     142.472
  H     -115.911      -5.273     142.425

 3  4  5  6  7  8  9  10  11  12  22  25  29  30  31  32 0
 6-311+G(2d,p)
 ****
 33  36  37 0
 6-311+G(2d,p)
 ****
 1  2  13  14  15  16  17  18  19  20  21  23  24  26 0
 3-21G
 ****
 27  28  34  35  38  39  40  41  42  43  44  45  46  47  48 0
 3-21G
 ****


