%nproc=1
%NoSave
%Mem=1900MB
#P OB98/GEN NMR

erre ene a

0 1
  C      -22.981     220.071    -196.208
  O      -22.268     219.879    -197.410
  H      -23.524     219.151    -195.973
  H      -23.705     220.882    -196.321
  H      -22.300     220.295    -195.382
  P      -21.254     221.020    -197.897
  C      -23.180     221.743    -199.449
  O      -22.137     222.169    -198.582
  C      -24.451     222.538    -199.165
  O      -24.667     222.630    -197.738
  C      -24.399     223.978    -199.661
  O      -24.567     224.051    -201.064
  C      -25.519     224.601    -198.845
  O      -26.798     224.347    -199.439
  C      -25.387     223.860    -197.496
  N      -24.712     224.674    -196.486
  C      -25.511     225.164    -195.456
  O      -26.716     224.933    -195.363
  N      -24.887     225.985    -194.556
  C      -23.611     226.463    -194.670
  O      -23.176     227.383    -193.985
  C      -22.796     225.865    -195.738
  C      -23.379     225.019    -196.592
  O      -20.089     220.550    -198.701
  O      -20.776     221.705    -196.528
  H      -19.886     221.379    -196.299
  H      -27.436     224.911    -198.954
  H      -25.470     226.377    -193.831
  H      -21.760     226.164    -195.815
  H      -22.808     224.592    -197.410
  H      -26.376     223.578    -197.114
  H      -25.400     225.683    -198.760
  H      -23.448     224.437    -199.369
  H      -25.302     222.003    -199.606
  H      -23.368     220.677    -199.275
  H      -22.858     221.880    -200.487
  P      -23.339     224.480    -202.002
  C      -24.805     226.343    -202.995
  O      -23.543     226.011    -202.425
  O      -23.049     223.550    -203.131
  O      -22.093     224.555    -200.997
  H      -21.352     224.044    -201.376
  H      -24.824     227.385    -203.236
  H      -25.582     226.125    -202.293
  H      -24.957     225.768    -203.885

 6  7  8  9  10  11  12  13  14  15  16  27  31  32  33  34  35 0
 6-311+G(2d,p)
 ****
 36  37 0
 6-311+G(2d,p)
 ****
 1  2  3  4  5  17  18  19  20  21  22  23  24  25 0
 3-21G
 ****
 26  28  29  30  38  39  40  41  42  43  44  45 0
 3-21G
 ****


