%nproc=1
%NoSave
%Mem=1900MB
#P OB98/GEN NMR

erre ene a

0 1
  C      -32.276     138.312      -5.745
  O      -33.526     137.644      -5.967
  P      -34.054     137.216      -7.421
  C      -32.368     135.584      -8.515
  O      -33.539     135.724      -7.719
  C      -32.534     134.450      -9.530
  O      -31.323     134.288     -10.305
  C      -32.778     133.073      -8.931
  O      -34.088     132.933      -8.412
  C      -32.476     132.170     -10.126
  O      -33.619     132.038     -10.983
  C      -31.363     132.949     -10.852
  N      -30.064     132.305     -10.754
  C      -29.790     131.299     -11.685
  O      -30.654     130.938     -12.483
  N      -28.547     130.718     -11.676
  C      -27.693     131.035     -10.753
  N      -26.471     130.439     -10.805
  C      -27.993     131.991      -9.671
  C      -29.182     132.585      -9.734
  O      -33.718     138.193      -8.499
  O      -35.638     137.052      -7.264
  H      -36.069     137.205      -8.126
  H      -34.267     131.483     -10.506
  H      -27.268     132.196      -8.897
  H      -29.478     133.313      -8.985
  H      -31.621     133.078     -11.909
  H      -32.186     131.161      -9.817
  H      -32.041     132.887      -8.140
  H      -33.352     134.720     -10.212
  H      -26.295     129.795     -11.566
  H      -31.526     135.348      -7.855
  H      -25.728     130.632     -10.149
  H      -32.159     136.533      -9.019
  P      -34.227     132.261      -6.963
  C      -33.390     134.086      -5.319
  O      -34.499     133.433      -5.905
  O      -32.737     131.778      -6.626
  O      -35.192     131.123      -6.899
  H      -32.767     130.916      -6.172
  H      -33.687     135.101      -5.043
  H      -32.541     134.138      -6.005
  H      -33.093     133.549      -4.415
  H      -32.148     138.490      -4.698
  H      -32.272     139.245      -6.269
  H      -31.475     137.699      -6.103

 3  4  5  6  7  8  9  10  11  12  13  24  27  28  29  30  32 0
 6-311+G(2d,p)
 ****
 34  35 0
 6-311+G(2d,p)
 ****
 1  2  14  15  16  17  18  19  20  21  22  23  25  26 0
 3-21G
 ****
 31  33  36  37  38  39  40  41  42  43  44  45  46 0
 3-21G
 ****


