%nproc=1
%NoSave
%Mem=1900MB
#P OB98/GEN NMR

erre ene a

0 1
  C      827.799     763.283     -30.094
  O      828.615     764.311     -29.568
  H      827.581     763.516     -31.145
  H      826.856     763.240     -29.544
  H      828.295     762.316     -30.058
  P      829.321     764.081     -28.155
  C      829.822     766.198     -26.767
  O      830.201     765.399     -27.870
  C      830.533     767.560     -26.798
  O      831.971     767.342     -26.676
  C      830.292     768.352     -28.080
  O      830.337     769.750     -27.755
  C      831.498     767.974     -28.916
  O      831.714     768.875     -29.982
  C      832.586     767.937     -27.835
  N      833.781     767.196     -28.266
  C      834.965     767.931     -28.339
  O      835.045     769.134     -28.107
  N      836.066     767.228     -28.750
  C      836.099     765.919     -29.147
  O      837.105     765.351     -29.530
  C      834.799     765.210     -29.076
  C      833.723     765.874     -28.654
  O      830.055     762.791     -27.994
  O      828.138     764.216     -27.085
  H      830.901     768.967     -30.520
  H      828.319     763.665     -26.302
  H      836.939     767.731     -28.805
  H      834.779     764.173     -29.396
  H      832.754     765.381     -28.595
  H      832.903     768.951     -27.571
  H      831.368     766.978     -29.355
  H      829.342     768.116     -28.574
  H      830.228     768.141     -25.917
  H      830.094     765.656     -25.842
  H      828.737     766.344     -26.775
  P      829.605     770.863     -28.640
  C      831.477     772.635     -28.513
  O      830.122     772.306     -28.189
  O      828.112     770.731     -28.687
  O      830.237     770.691     -30.119
  H      829.596     770.976     -30.777
  H      831.699     773.620     -28.160
  H      831.609     772.598     -29.574
  H      832.136     771.932     -28.047

 6  7  8  9  10  11  12  13  14  15  16  26  31  32  33  34  35 0
 6-311+G(2d,p)
 ****
 36  37 0
 6-311+G(2d,p)
 ****
 1  2  3  4  5  17  18  19  20  21  22  23  24  25 0
 3-21G
 ****
 27  28  29  30  38  39  40  41  42  43  44  45 0
 3-21G
 ****


