%nproc=1
%NoSave
%Mem=1900MB
#P OB98/GEN NMR

erre ene a

0 1
  C     -384.056    -888.477     218.243
  O     -384.639    -887.194     218.019
  P     -385.518    -886.544     219.194
  C     -385.202    -883.947     218.766
  O     -386.019    -885.092     218.745
  C     -385.876    -882.814     217.969
  O     -385.844    -883.113     216.559
  C     -387.342    -882.611     218.344
  O     -387.480    -881.723     219.464
  C     -387.929    -882.050     217.060
  O     -387.577    -880.652     216.909
  C     -387.191    -882.911     216.010
  N     -387.759    -884.224     215.652
  C     -388.855    -884.304     214.792
  O     -389.411    -883.320     214.289
  N     -389.317    -885.568     214.500
  C     -388.702    -886.743     214.831
  O     -389.123    -887.836     214.501
  C     -387.458    -886.598     215.611
  C     -387.059    -885.381     215.982
  O     -384.460    -886.237     220.342
  O     -386.640    -887.415     219.662
  H     -387.948    -880.366     216.066
  H     -384.656    -886.782     221.126
  H     -390.150    -885.627     213.945
  H     -386.918    -887.509     215.855
  H     -386.138    -885.278     216.561
  H     -387.074    -882.349     215.069
  H     -389.011    -882.105     217.056
  H     -387.829    -883.563     218.553
  H     -385.322    -881.874     218.121
  H     -384.216    -884.152     218.343
  H     -385.049    -883.631     219.808
  P     -388.302    -882.191     220.753
  C     -386.525    -882.345     222.597
  O     -387.534    -881.552     222.010
  O     -388.599    -883.653     220.836
  O     -389.650    -881.325     220.682
  H     -390.376    -881.821     220.256
  H     -385.978    -881.749     223.318
  H     -385.825    -882.715     221.826
  H     -386.978    -883.208     223.106
  H     -383.504    -888.774     217.376
  H     -384.829    -889.191     218.436
  H     -383.397    -888.427     219.085

 3  4  5  6  7  8  9  10  11  12  13  23  28  29  30  31  32 0
 6-311+G(2d,p)
 ****
 33  34 0
 6-311+G(2d,p)
 ****
 1  2  14  15  16  17  18  19  20  21  22  24  25  26  27 0
 3-21G
 ****
 35  36  37  38  39  40  41  42  43  44  45 0
 3-21G
 ****


