%nproc=1
%NoSave
%Mem=1900MB
#P OB98/GEN NMR

erre ene a

0 1
  C      254.359    -260.550    -215.083
  O      255.278    -260.021    -216.025
  P      255.643    -258.465    -215.936
  C      254.486    -256.250    -216.705
  O      254.418    -257.666    -216.621
  C      254.237    -255.792    -218.152
  O      255.307    -256.282    -218.994
  C      252.920    -256.285    -218.768
  O      252.465    -255.258    -219.659
  C      253.340    -257.510    -219.548
  O      252.403    -257.870    -220.570
  C      254.701    -257.064    -220.049
  N      258.530    -258.693    -222.956
  C      257.850    -257.481    -222.973
  N      258.296    -256.557    -223.855
  N      256.830    -257.198    -222.206
  C      256.507    -258.217    -221.361
  C      257.073    -259.478    -221.274
  C      258.227    -259.749    -222.105
  O      258.910    -260.776    -222.066
  N      256.424    -260.262    -220.362
  C      255.507    -259.461    -219.845
  N      255.552    -258.194    -220.380
  O      256.830    -258.302    -216.990
  O      256.005    -257.948    -214.574
  H      252.788    -258.597    -221.078
  H      257.707    -258.380    -216.547
  H      259.318    -258.842    -223.563
  H      254.796    -259.731    -219.076
  H      254.640    -256.427    -220.948
  H      253.429    -258.374    -218.869
  H      259.094    -256.696    -224.464
  H      252.135    -256.504    -218.015
  H      257.835    -255.646    -223.872
  H      254.283    -254.694    -218.170
  H      255.493    -255.920    -216.408
  H      253.765    -255.802    -216.013
  P      250.882    -254.980    -219.743
  C      249.047    -255.512    -221.483
  O      250.282    -255.894    -220.909
  O      250.818    -253.497    -220.366
  O      250.168    -255.035    -218.426
  H      250.040    -253.021    -220.014
  H      248.958    -255.969    -222.486
  H      248.950    -254.428    -221.586
  H      248.226    -255.898    -220.860
  H      254.218    -261.594    -215.270
  H      253.422    -260.042    -215.175
  H      254.744    -260.413    -214.094

 3  4  5  6  7  8  9  10  11  12  23  26  30  31 0
 6-311+G(2d,p)
 ****
 33  35  36  37  38 0
 6-311+G(2d,p)
 ****
 1  2  13  14  15  16  17  18  19  20  21  22  24  25 0
 3-21G
 ****
 27  28  29  32  34  39  40  41  42  43  44  45  46  47  48  49 0
 3-21G
 ****


