%nproc=1
%NoSave
%Mem=1900MB
#P OB98/GEN NMR

erre ene a

0 1
  C       21.569      61.968      63.759
  O       22.296      60.765      63.612
  H       21.567      62.495      62.801
  H       22.049      62.602      64.507
  H       20.536      61.762      64.051
  P       22.249      59.741      64.847
  C       24.368      60.757      65.949
  O       22.983      60.471      66.073
  C       24.778      61.827      66.955
  O       24.281      63.120      66.545
  C       24.248      61.597      68.366
  O       25.060      60.685      69.093
  C       24.353      63.001      68.937
  O       25.725      63.286      69.278
  C       23.914      63.859      67.744
  N       20.205      66.755      69.626
  C       21.556      66.745      69.915
  N       21.979      67.626      70.847
  N       22.417      65.940      69.348
  C       21.850      65.105      68.444
  C       20.527      65.023      68.070
  C       19.589      65.923      68.700
  O       18.386      65.991      68.464
  N       20.335      64.060      67.116
  C       21.534      63.547      66.925
  N       22.488      64.142      67.713
  O       23.293      58.600      64.421
  O       20.909      59.163      65.149
  H       26.035      62.549      69.834
  H       22.963      57.738      64.741
  H       19.585      67.388      70.101
  H       21.764      62.750      66.232
  H       24.433      64.823      67.709
  H       23.764      63.132      69.845
  H       21.362      68.238      71.357
  H       23.197      61.285      68.356
  H       22.969      67.659      71.051
  H       25.874      61.884      66.959
  H       24.572      61.117      64.935
  H       24.938      59.839      66.122
  P       24.378      59.890      70.312
  C       25.366      61.557      72.042
  O       24.195      60.971      71.483
  O       25.568      58.963      70.848
  O       23.167      59.100      69.951
  H       25.202      58.193      71.324
  H       25.087      62.253      72.805
  H       25.910      62.068      71.275
  H       25.981      60.791      72.465

 6  7  8  9  10  11  12  13  14  15  26  29  33  34 0
 6-311+G(2d,p)
 ****
 36  38  39  40  41 0
 6-311+G(2d,p)
 ****
 1  2  3  4  5  16  17  18  19  20  21  22  23  24  25 0
 3-21G
 ****
 27  28  30  31  32  35  37  42  43  44  45  46  47 0
 3-21G
 ****
 48  49 0
 3-21G
 ****


