%nproc=1
%NoSave
%Mem=1900MB
#P OB98/GEN NMR

erre ene a

0 1
  C      475.954    -102.635     405.720
  O      476.231    -103.910     405.178
  H      476.863    -102.030     405.674
  H      475.641    -102.723     406.761
  H      475.172    -102.142     405.136
  P      475.044    -104.992     405.256
  C      475.515    -105.683     407.726
  O      474.656    -105.012     406.816
  C      474.687    -106.488     408.726
  O      473.658    -105.663     409.319
  C      473.948    -107.681     408.123
  O      474.784    -108.797     407.883
  C      472.941    -107.950     409.225
  O      473.604    -108.587     410.337
  C      472.510    -106.509     409.587
  N      471.345    -106.057     408.821
  C      470.113    -106.628     409.158
  O      470.030    -107.469     410.049
  N      468.997    -106.257     408.450
  C      469.093    -105.378     407.500
  N      467.955    -105.052     406.829
  C      470.368    -104.741     407.119
  C      471.439    -105.122     407.812
  O      475.804    -106.388     405.066
  O      473.899    -104.777     404.327
  H      474.217    -107.926     410.712
  H      475.185    -107.137     405.245
  H      470.403    -104.024     406.314
  H      472.410    -104.697     407.592
  H      472.278    -106.426     410.654
  H      472.130    -108.606     408.922
  H      473.406    -107.399     407.213
  H      475.359    -106.804     409.536
  H      467.107    -105.550     407.073
  H      476.114    -104.932     408.253
  H      467.955    -104.496     405.984
  H      476.184    -106.359     407.184
  P      474.656    -109.521     406.454
  C      473.329    -111.451     407.592
  O      473.390    -110.496     406.538
  O      475.899    -110.529     406.444
  O      474.674    -108.596     405.278
  H      476.263    -110.625     405.544
  H      472.427    -112.020     407.506
  H      473.343    -110.944     408.534
  H      474.172    -112.107     407.528

 6  7  8  9  10  11  12  13  14  15  16  26  30  31  32  33  35 0
 6-311+G(2d,p)
 ****
 37  38 0
 6-311+G(2d,p)
 ****
 1  2  3  4  5  17  18  19  20  21  22  23  24  25 0
 3-21G
 ****
 27  28  29  34  36  39  40  41  42  43  44  45  46 0
 3-21G
 ****


