%nproc=1
%NoSave
%Mem=1900MB
#P OB98/GEN NMR

erre ene a

0 1
  C     -475.827     361.864     163.936
  O     -475.788     360.614     164.598
  H     -476.441     361.786     163.030
  H     -476.279     362.603     164.601
  H     -474.817     362.180     163.669
  P     -475.201     359.371     163.772
  C     -473.822     358.481     165.783
  O     -474.854     358.213     164.841
  C     -474.418     358.624     167.176
  O     -475.063     359.925     167.276
  C     -475.459     357.542     167.543
  O     -475.058     356.850     168.736
  C     -476.723     358.333     167.865
  O     -477.438     357.820     168.982
  C     -476.205     359.748     168.116
  N     -479.246     363.270     170.203
  C     -478.092     362.712     170.645
  N     -477.276     361.862     169.991
  C     -477.724     361.609     168.744
  C     -478.879     362.119     168.162
  C     -479.665     362.974     168.955
  N     -480.867     363.502     168.527
  N     -479.033     361.627     166.880
  C     -478.020     360.801     166.713
  N     -477.208     360.739     167.825
  O     -473.765     359.894     163.294
  O     -476.029     358.926     162.616
  H     -477.660     356.897     168.778
  H     -473.638     359.708     162.352
  H     -477.780     362.982     171.655
  H     -477.842     360.179     165.838
  H     -475.886     359.884     169.164
  H     -477.388     358.310     166.980
  H     -475.642     356.837     166.733
  H     -473.594     358.618     167.911
  H     -473.313     359.413     165.514
  H     -481.416     364.007     169.205
  H     -481.239     363.206     167.640
  H     -473.082     357.671     165.748
  P     -474.612     355.307     168.549
  C     -474.156     355.404     171.111
  O     -474.597     354.640     170.000
  O     -473.042     355.424     168.189
  O     -475.373     354.581     167.484
  H     -472.755     354.664     167.663
  H     -474.210     354.808     171.998
  H     -474.780     356.266     171.222
  H     -473.145     355.715     170.951

 6  7  8  9  10  11  12  13  14  15  25  28  32  33  34  35 0
 6-311+G(2d,p)
 ****
 36  39  40 0
 6-311+G(2d,p)
 ****
 1  2  3  4  5  16  17  18  19  20  21  22  23  24 0
 3-21G
 ****
 26  27  29  30  31  37  38  41  42  43  44  45  46  47  48 0
 3-21G
 ****


