%nproc=1
%NoSave
%Mem=1900MB
#P OB98/GEN NMR

erre ene a

0 1
  C      -26.580      23.981      -1.107
  O      -25.977      22.780      -1.543
  H      -25.968      24.411      -0.310
  H      -27.580      23.782      -0.714
  H      -26.638      24.694      -1.932
  P      -26.751      21.952      -2.677
  C      -26.722      22.040      -5.273
  O      -26.533      22.745      -4.054
  C      -27.310      22.979      -6.320
  O      -28.638      23.389      -5.923
  C      -26.527      24.271      -6.507
  O      -25.367      24.086      -7.299
  C      -27.569      25.145      -7.184
  O      -27.613      24.912      -8.600
  C      -28.879      24.686      -6.506
  N      -29.354      25.650      -5.520
  C      -30.130      26.692      -6.019
  O      -30.408      26.813      -7.211
  N      -30.547      27.618      -5.104
  C      -30.238      27.625      -3.775
  O      -30.583      28.526      -3.021
  C      -29.427      26.492      -3.301
  C      -29.020      25.575      -4.182
  O      -28.291      22.210      -2.327
  O      -26.422      20.498      -2.733
  H      -28.667      21.428      -1.884
  H      -28.253      25.555      -8.963
  H      -31.100      28.387      -5.448
  H      -29.170      26.463      -2.249
  H      -28.404      24.741      -3.859
  H      -29.669      24.552      -7.255
  H      -27.356      26.204      -7.045
  H      -26.277      24.708      -5.533
  H      -27.389      22.434      -7.271
  H      -27.415      21.208      -5.110
  H      -25.760      21.638      -5.605
  P      -24.163      25.135      -7.151
  C      -22.825      26.063      -5.090
  O      -23.963      25.378      -5.578
  O      -24.857      26.478      -7.668
  O      -22.929      24.739      -7.885
  H      -25.796      26.540      -7.422
  H      -22.875      26.123      -4.023
  H      -22.799      27.050      -5.502
  H      -21.940      25.534      -5.377

 6  7  8  9  10  11  12  13  14  15  16  27  31  32  33  34  35 0
 6-311+G(2d,p)
 ****
 36  37 0
 6-311+G(2d,p)
 ****
 1  2  3  4  5  17  18  19  20  21  22  23  24  25 0
 3-21G
 ****
 26  28  29  30  38  39  40  41  42  43  44  45 0
 3-21G
 ****


