%nproc=1
%NoSave
%Mem=1900MB
#P OB98/GEN NMR

erre ene a

0 1
  C      110.162     632.938    -148.564
  O      110.214     634.042    -147.673
  H      111.071     632.345    -148.440
  H      110.112     633.293    -149.600
  H      109.295     632.311    -148.340
  P      109.005     635.097    -147.776
  C      110.521     637.050    -148.605
  O      109.729     636.508    -147.559
  C      111.150     638.365    -148.157
  O      110.129     639.376    -147.988
  C      111.869     638.290    -146.806
  O      113.160     637.696    -146.897
  C      111.939     639.759    -146.457
  O      112.979     640.395    -147.225
  C      110.537     640.244    -146.885
  N      109.561     640.211    -145.806
  C      109.224     641.416    -145.202
  O      109.767     642.470    -145.571
  N      108.317     641.432    -144.170
  C      107.775     640.322    -143.767
  N      106.896     640.377    -142.733
  C      108.071     639.006    -144.387
  C      108.969     639.028    -145.382
  O      108.209     634.898    -146.396
  O      108.162     634.998    -149.002
  H      113.789     639.869    -147.085
  H      107.516     635.597    -146.312
  H      107.614     638.113    -144.015
  H      109.243     638.100    -145.882
  H      110.585     641.273    -147.274
  H      112.174     639.926    -145.393
  H      111.265     637.773    -146.050
  H      111.829     638.715    -148.948
  H      106.742     641.279    -142.291
  H      109.877     637.219    -149.475
  H      106.565     639.555    -142.246
  H      111.318     636.352    -148.882
  P      113.521     636.526    -145.872
  C      115.599     637.546    -144.678
  O      115.109     636.603    -145.626
  O      113.350     635.194    -146.740
  O      112.684     636.486    -144.626
  H      112.962     634.484    -146.219
  H      116.666     637.478    -144.626
  H      115.181     637.335    -143.716
  H      115.319     638.534    -144.980

 6  7  8  9  10  11  12  13  14  15  16  26  30  31  32  33  35 0
 6-311+G(2d,p)
 ****
 37  38 0
 6-311+G(2d,p)
 ****
 1  2  3  4  5  17  18  19  20  21  22  23  24  25 0
 3-21G
 ****
 27  28  29  34  36  39  40  41  42  43  44  45  46 0
 3-21G
 ****


