%nproc=1
%NoSave
%Mem=1900MB
#P OB98/GEN NMR

erre ene a

0 1
  C      367.236    -431.779     234.819
  O      366.789    -431.687     236.158
  H      367.490    -430.777     234.463
  H      366.433    -432.179     234.192
  H      368.119    -432.415     234.749
  P      366.508    -433.058     236.943
  C      366.708    -433.571     239.486
  O      366.262    -432.669     238.484
  C      366.709    -432.886     240.855
  O      367.823    -431.948     240.910
  C      365.424    -432.116     241.157
  O      365.105    -432.283     242.541
  C      365.809    -430.664     240.894
  O      364.998    -429.740     241.625
  C      367.294    -430.667     241.280
  N      368.016    -429.578     240.622
  C      368.195    -428.399     241.372
  O      367.750    -428.323     242.520
  N      368.826    -427.336     240.784
  C      369.163    -427.391     239.536
  N      369.759    -426.296     239.001
  C      368.929    -428.588     238.686
  C      368.366    -429.633     239.295
  O      367.942    -433.767     236.976
  O      365.453    -433.932     236.352
  H      364.063    -429.900     241.391
  H      367.861    -434.739     236.952
  H      369.205    -428.579     237.641
  H      368.153    -430.544     238.750
  H      367.403    -430.561     242.373
  H      365.693    -430.444     239.825
  H      364.576    -432.428     240.544
  H      366.900    -433.656     241.622
  H      369.887    -425.486     239.605
  H      367.732    -433.886     239.241
  H      370.023    -426.205     238.023
  H      366.055    -434.452     239.496
  P      364.020    -433.399     242.897
  C      363.977    -435.355     244.617
  O      364.371    -434.021     244.338
  O      364.361    -434.589     241.882
  O      362.593    -432.929     242.749
  H      363.673    -434.644     241.188
  H      364.282    -435.617     245.609
  H      364.439    -436.018     243.915
  H      362.913    -435.437     244.538

 6  7  8  9  10  11  12  13  14  15  16  26  30  31  32  33  35 0
 6-311+G(2d,p)
 ****
 37  38 0
 6-311+G(2d,p)
 ****
 1  2  3  4  5  17  18  19  20  21  22  23  24  25 0
 3-21G
 ****
 27  28  29  34  36  39  40  41  42  43  44  45  46 0
 3-21G
 ****


