%nproc=1
%NoSave
%Mem=1900MB
#P OB98/GEN NMR

erre ene a

0 1
  C      -42.506    -666.921    -267.548
  O      -41.557    -667.105    -268.606
  P      -40.052    -667.453    -268.154
  C      -38.871    -665.168    -268.477
  O      -39.402    -666.107    -267.559
  C      -37.784    -664.302    -267.824
  O      -36.755    -665.140    -267.226
  C      -37.089    -663.339    -268.801
  O      -36.783    -662.141    -268.066
  C      -35.812    -664.095    -269.135
  O      -34.817    -663.293    -269.740
  C      -35.486    -664.680    -267.769
  N      -30.656    -665.879    -268.907
  C      -31.339    -664.717    -268.995
  N      -32.635    -664.474    -268.677
  C      -33.222    -665.603    -268.219
  C      -32.655    -666.855    -268.080
  C      -31.306    -666.985    -268.447
  N      -30.601    -668.164    -268.379
  N      -33.588    -667.769    -267.595
  C      -34.714    -667.072    -267.533
  N      -34.522    -665.752    -267.812
  O      -39.290    -667.681    -269.532
  O      -39.972    -668.637    -267.250
  H      -34.014    -663.818    -269.902
  H      -39.204    -668.624    -269.726
  H      -30.780    -663.870    -269.367
  H      -35.681    -667.476    -267.273
  H      -35.092    -663.914    -267.076
  H      -36.046    -664.907    -269.854
  H      -37.694    -663.083    -269.682
  H      -38.254    -663.727    -267.016
  H      -39.674    -664.519    -268.856
  H      -29.636    -668.155    -268.689
  H      -31.046    -669.002    -268.072
  H      -38.477    -665.702    -269.351
  P      -37.535    -660.783    -268.469
  C      -35.950    -660.307    -270.426
  O      -37.278    -660.624    -270.046
  O      -36.512    -659.698    -267.877
  O      -38.932    -660.636    -267.977
  H      -35.595    -659.885    -268.153
  H      -35.910    -660.320    -271.529
  H      -35.260    -661.068    -270.042
  H      -35.682    -659.318    -270.071
  H      -43.465    -666.696    -267.965
  H      -42.190    -666.113    -266.922
  H      -42.571    -667.817    -266.967

 3  4  5  6  7  8  9  10  11  12  22  25  29  30  31  32 0
 6-311+G(2d,p)
 ****
 33  36  37 0
 6-311+G(2d,p)
 ****
 1  2  13  14  15  16  17  18  19  20  21  23  24  26 0
 3-21G
 ****
 27  28  34  35  38  39  40  41  42  43  44  45  46  47  48 0
 3-21G
 ****


