%nproc=1
%NoSave
%Mem=1900MB
#P OB98/GEN NMR

erre ene a

0 1
  C     -158.460     -12.409      36.441
  O     -159.833     -12.325      36.763
  H     -157.910     -11.685      37.047
  H     -158.307     -12.173      35.386
  H     -158.078     -13.412      36.656
  P     -160.812     -13.388      36.067
  C     -162.685     -13.197      34.269
  O     -161.538     -12.610      34.864
  C     -163.236     -12.272      33.182
  O     -163.849     -11.119      33.822
  C     -162.157     -11.747      32.229
  O     -162.704     -11.656      30.909
  C     -161.867     -10.355      32.763
  O     -161.314      -9.474      31.795
  C     -163.258      -9.935      33.248
  N     -163.206      -8.854      34.231
  C     -162.911      -7.578      33.765
  O     -162.764      -7.281      32.580
  N     -162.781      -6.611      34.729
  C     -162.891      -6.796      36.076
  O     -162.741      -5.894      36.891
  C     -163.195      -8.167      36.508
  C     -163.335      -9.118      35.580
  O     -161.983     -13.571      37.142
  O     -160.185     -14.682      35.674
  H     -161.771     -14.299      37.757
  H     -160.493      -9.881      31.451
  H     -162.568      -5.679      34.407
  H     -163.281      -8.355      37.571
  H     -163.546     -10.143      35.868
  H     -163.884      -9.633      32.400
  H     -161.166     -10.416      33.603
  H     -161.262     -12.371      32.214
  H     -164.028     -12.797      32.634
  H     -163.451     -13.347      35.037
  H     -162.414     -14.167      33.840
  P     -161.669     -11.642      29.681
  C     -161.071      -9.870      27.854
  O     -161.720     -10.153      29.081
  O     -162.445     -12.531      28.605
  O     -160.313     -12.137      30.057
  H     -163.409     -12.396      28.612
  H     -161.207      -8.838      27.608
  H     -161.490     -10.479      27.080
  H     -160.026     -10.080      27.947

 6  7  8  9  10  11  12  13  14  15  16  27  31  32  33  34  35 0
 6-311+G(2d,p)
 ****
 36  37 0
 6-311+G(2d,p)
 ****
 1  2  3  4  5  17  18  19  20  21  22  23  24  25 0
 3-21G
 ****
 26  28  29  30  38  39  40  41  42  43  44  45 0
 3-21G
 ****


