%nproc=1
%NoSave
%Mem=1900MB
#P OB98/GEN NMR

erre ene a

0 1
  C      123.691      43.562      69.492
  O      122.707      43.148      68.555
  P      121.264      43.852      68.632
  C      119.271      43.912      66.969
  O      120.679      43.801      67.140
  C      118.807      43.079      65.778
  O      119.195      43.715      64.545
  C      119.396      41.677      65.720
  O      118.704      40.768      66.559
  C      119.167      41.330      64.258
  O      117.799      40.932      64.059
  C      119.435      42.670      63.565
  N      122.997      40.455      60.643
  C      121.765      40.053      61.019
  N      120.880      40.696      61.809
  C      121.394      41.854      62.255
  C      122.649      42.375      61.986
  C      123.471      41.629      61.127
  N      124.714      42.054      60.721
  N      122.818      43.584      62.624
  C      121.685      43.796      63.258
  N      120.788      42.784      63.058
  O      121.629      45.398      68.833
  O      120.369      43.341      69.708
  H      117.720      40.014      64.382
  H      120.880      45.866      69.249
  H      121.443      39.093      60.626
  H      121.467      44.667      63.862
  H      118.753      42.849      62.727
  H      119.794      40.501      63.915
  H      120.473      41.689      65.930
  H      117.710      43.034      65.805
  H      119.015      44.961      66.792
  H      125.160      41.557      59.966
  H      124.978      43.012      60.920
  H      118.773      43.579      67.885
  P      119.568      39.581      67.208
  C      119.060      37.803      69.033
  O      118.665      39.003      68.399
  O      120.748      40.358      67.956
  O      120.077      38.586      66.220
  H      121.533      39.785      68.043
  H      118.537      37.723      69.990
  H      120.137      37.791      69.223
  H      118.787      36.947      68.410
  H      124.595      43.014      69.325
  H      123.339      43.376      70.485
  H      123.881      44.608      69.371

 3  4  5  6  7  8  9  10  11  12  22  25  29  30  31  32 0
 6-311+G(2d,p)
 ****
 33  36  37 0
 6-311+G(2d,p)
 ****
 1  2  13  14  15  16  17  18  19  20  21  23  24  26 0
 3-21G
 ****
 27  28  34  35  38  39  40  41  42  43  44  45  46  47  48 0
 3-21G
 ****


