%nproc=1
%NoSave
%Mem=1900MB
#P OB98/GEN NMR

erre ene a

0 1
  C      205.476    -444.715     -25.372
  O      205.402    -444.311     -24.017
  H      206.163    -444.049     -25.902
  H      204.489    -444.638     -25.837
  H      205.848    -445.738     -25.459
  P      204.679    -445.275     -22.962
  C      202.621    -445.635     -24.480
  O      203.720    -446.243     -23.806
  C      201.296    -446.105     -23.886
  O      200.250    -445.157     -24.275
  C      200.843    -447.499     -24.366
  O      200.110    -448.109     -23.292
  C      199.917    -447.129     -25.509
  O      199.127    -448.219     -25.920
  C      199.194    -445.930     -24.888
  N      198.449    -445.137     -25.856
  C      197.399    -445.763     -26.515
  O      197.054    -446.928     -26.323
  N      196.743    -444.999     -27.449
  C      197.031    -443.704     -27.768
  O      196.398    -443.060     -28.593
  C      198.170    -443.106     -27.052
  C      198.816    -443.831     -26.143
  O      204.031    -444.595     -21.802
  O      205.847    -446.262     -22.483
  H      206.218    -445.946     -21.636
  H      198.374    -448.351     -25.300
  H      195.971    -445.438     -27.940
  H      198.438    -442.087     -27.302
  H      199.665    -443.428     -25.598
  H      198.526    -446.255     -24.088
  H      200.501    -446.821     -26.381
  H      201.681    -448.146     -24.651
  H      201.362    -446.067     -22.789
  H      202.676    -445.921     -25.535
  H      202.703    -444.548     -24.396
  P      200.513    -449.532     -22.656
  C      200.030    -450.990     -24.730
  O      201.017    -450.518     -23.822
  O      199.433    -450.127     -21.801
  O      201.827    -449.259     -21.786
  H      201.809    -449.822     -20.990
  H      200.488    -451.632     -25.453
  H      199.577    -450.159     -25.228
  H      199.282    -451.534     -24.192

 6  7  8  9  10  11  12  13  14  15  16  27  31  32  33  34  35 0
 6-311+G(2d,p)
 ****
 36  37 0
 6-311+G(2d,p)
 ****
 1  2  3  4  5  17  18  19  20  21  22  23  24  25 0
 3-21G
 ****
 26  28  29  30  38  39  40  41  42  43  44  45 0
 3-21G
 ****


