%nproc=1
%NoSave
%Mem=1900MB
#P OB98/GEN NMR

erre ene a

0 1
  C     -119.977    -314.881     179.819
  O     -120.193    -314.046     180.937
  H     -120.471    -314.437     178.951
  H     -120.414    -315.866     180.003
  H     -118.912    -314.982     179.600
  P     -119.343    -314.302     182.271
  C     -117.524    -312.541     181.775
  O     -118.607    -312.916     182.613
  C     -116.362    -311.984     182.601
  O     -115.199    -311.837     181.738
  C     -116.645    -310.611     183.229
  O     -115.908    -310.538     184.456
  C     -116.045    -309.673     182.199
  O     -115.830    -308.385     182.732
  C     -114.794    -310.456     181.792
  N     -114.231    -309.994     180.524
  C     -113.186    -309.086     180.604
  O     -112.751    -308.644     181.669
  N     -112.671    -308.655     179.412
  C     -113.138    -308.992     178.175
  O     -112.659    -308.551     177.137
  C     -114.277    -309.921     178.153
  C     -114.763    -310.376     179.309
  O     -118.445    -315.494     182.247
  O     -120.444    -314.405     183.428
  H     -115.433    -307.798     182.051
  H     -120.132    -315.000     184.136
  H     -111.903    -308.003     179.452
  H     -114.677    -310.202     177.188
  H     -115.603    -311.065     179.327
  H     -114.016    -310.363     182.561
  H     -116.718    -309.560     181.343
  H     -117.707    -310.428     183.409
  H     -116.095    -312.719     183.370
  H     -117.885    -311.775     181.080
  H     -117.189    -313.411     181.201
  P     -116.633    -310.480     185.883
  C     -116.246    -312.725     187.087
  O     -115.805    -311.380     186.924
  O     -118.098    -310.784     185.843
  O     -116.383    -308.987     186.409
  H     -117.107    -308.720     187.003
  H     -115.622    -313.221     187.800
  H     -116.190    -313.235     186.148
  H     -117.258    -312.729     187.435

 6  7  8  9  10  11  12  13  14  15  16  26  31  32  33  34  35 0
 6-311+G(2d,p)
 ****
 36  37 0
 6-311+G(2d,p)
 ****
 1  2  3  4  5  17  18  19  20  21  22  23  24  25 0
 3-21G
 ****
 27  28  29  30  38  39  40  41  42  43  44  45 0
 3-21G
 ****


