%nproc=1
%NoSave
%Mem=1900MB
#P OB98/GEN NMR

erre ene a

0 1
  C      364.168    -581.742      64.044
  O      363.314    -581.258      65.074
  P      362.851    -582.312      66.194
  C      362.895    -580.289      67.823
  O      362.220    -581.467      67.400
  C      361.903    -579.308      68.451
  O      361.078    -579.989      69.426
  C      362.540    -578.141      69.195
  O      363.035    -577.171      68.303
  C      361.360    -577.677      70.046
  O      360.456    -576.892      69.253
  C      360.691    -579.012      70.428
  N      359.146    -579.948      75.226
  C      358.498    -579.443      74.148
  N      358.981    -579.203      72.912
  C      360.277    -579.551      72.837
  C      361.074    -580.053      73.848
  C      360.459    -580.258      75.089
  N      361.120    -580.772      76.187
  N      362.364    -580.271      73.408
  C      362.343    -579.904      72.141
  N      361.099    -579.485      71.741
  O      364.235    -582.841      66.794
  O      362.001    -583.435      65.687
  H      360.996    -576.253      68.739
  H      364.171    -583.783      67.058
  H      357.455    -579.202      74.305
  H      363.185    -579.953      71.466
  H      359.596    -578.955      70.428
  H      361.664    -577.074      70.908
  H      363.341    -578.498      69.845
  H      361.241    -578.941      67.654
  H      363.366    -579.801      66.965
  H      360.650    -580.755      77.071
  H      362.128    -580.874      76.133
  H      363.675    -580.560      68.543
  P      364.199    -576.193      68.842
  C      364.396    -575.389      66.401
  O      364.233    -575.009      67.764
  O      365.512    -577.036      68.485
  O      364.056    -575.781      70.261
  H      365.502    -577.356      67.566
  H      364.356    -574.508      65.779
  H      363.605    -576.083      66.104
  H      365.379    -575.880      66.273
  H      364.400    -580.945      63.369
  H      363.675    -582.528      63.512
  H      365.072    -582.117      64.477

 3  4  5  6  7  8  9  10  11  12  22  25  29  30  31  32 0
 6-311+G(2d,p)
 ****
 33  36  37 0
 6-311+G(2d,p)
 ****
 1  2  13  14  15  16  17  18  19  20  21  23  24  26 0
 3-21G
 ****
 27  28  34  35  38  39  40  41  42  43  44  45  46  47  48 0
 3-21G
 ****


