%nproc=1
%NoSave
%Mem=1900MB
#P OB98/GEN NMR

erre ene a

0 1
  C     -622.217     319.056    -165.464
  O     -622.341     319.865    -164.293
  P     -621.056     320.652    -163.761
  C     -619.505     318.817    -162.649
  O     -619.791     319.681    -163.731
  C     -618.229     318.013    -162.958
  O     -617.089     318.900    -163.024
  C     -617.918     316.948    -161.922
  O     -618.574     315.726    -162.192
  C     -616.406     316.844    -162.017
  O     -616.032     316.069    -163.173
  C     -616.007     318.329    -162.222
  N     -615.826     319.174    -161.014
  C     -614.664     319.055    -160.259
  O     -613.747     318.284    -160.519
  N     -614.565     319.878    -159.169
  C     -615.410     320.901    -158.853
  O     -615.232     321.656    -157.892
  C     -616.542     321.089    -159.773
  C     -616.710     320.228    -160.773
  O     -621.374     320.905    -162.208
  O     -620.776     321.934    -164.488
  H     -615.077     316.194    -163.309
  H     -621.468     321.862    -162.031
  H     -613.772     319.758    -158.570
  H     -617.212     321.920    -159.587
  H     -617.545     320.349    -161.457
  H     -615.089     318.410    -162.807
  H     -615.979     316.329    -161.146
  H     -618.166     317.319    -160.919
  H     -618.351     317.552    -163.956
  H     -620.335     318.131    -162.476
  H     -619.367     319.405    -161.739
  P     -619.903     315.346    -161.367
  C     -618.539     313.628    -160.056
  O     -619.384     314.759    -159.968
  O     -620.914     314.513    -162.091
  O     -620.493     316.779    -160.931
  H     -621.202     317.064    -161.568
  H     -618.134     313.404    -159.060
  H     -617.707     313.814    -160.734
  H     -619.115     312.747    -160.396
  H     -623.160     318.601    -165.685
  H     -621.485     318.294    -165.295
  H     -621.914     319.666    -166.289

 3  4  5  6  7  8  9  10  11  12  13  23  28  29  30  31  32 0
 6-311+G(2d,p)
 ****
 33  34 0
 6-311+G(2d,p)
 ****
 1  2  14  15  16  17  18  19  20  21  22  24  25  26  27 0
 3-21G
 ****
 35  36  37  38  39  40  41  42  43  44  45 0
 3-21G
 ****


