%nproc=1
%NoSave
%Mem=1900MB
#P OB98/GEN NMR

erre ene a

0 1
  C      -14.842    -153.127      54.603
  O      -15.986    -153.665      53.979
  H      -13.992    -153.784      54.395
  H      -14.982    -153.082      55.686
  H      -14.620    -152.133      54.211
  P      -17.399    -152.924      54.156
  C      -17.176    -151.315      52.168
  O      -17.830    -152.474      52.670
  C      -18.125    -150.475      51.313
  O      -17.471    -149.232      50.938
  C      -18.570    -151.172      50.017
  O      -19.984    -151.041      49.859
  C      -17.860    -150.384      48.928
  O      -18.513    -150.468      47.664
  C      -17.813    -148.990      49.563
  N      -16.857    -148.116      48.896
  C      -17.218    -147.662      47.624
  O      -18.295    -147.998      47.129
  N      -16.334    -146.887      46.922
  C      -15.168    -146.627      47.426
  N      -14.325    -145.877      46.666
  C      -14.734    -147.108      48.754
  C      -15.621    -147.837      49.430
  O      -17.408    -151.834      55.173
  O      -18.439    -154.096      54.481
  H      -19.395    -150.042      47.740
  H      -19.221    -153.710      54.940
  H      -13.748    -146.867      49.126
  H      -15.392    -148.236      50.413
  H      -18.802    -148.513      49.536
  H      -16.840    -150.772      48.807
  H      -18.304    -152.228      49.985
  H      -18.990    -150.194      51.928
  H      -14.660    -145.573      45.759
  H      -16.307    -151.631      51.579
  H      -13.387    -145.631      46.941
  H      -16.835    -150.715      53.017
  P      -20.802    -152.406      49.645
  C      -20.822    -153.320      52.075
  O      -21.570    -152.741      51.015
  O      -19.653    -153.516      49.562
  O      -21.654    -152.403      48.420
  H      -19.590    -153.860      48.651
  H      -21.463    -153.485      52.915
  H      -20.030    -152.658      52.356
  H      -20.410    -154.253      51.752

 6  7  8  9  10  11  12  13  14  15  16  26  30  31  32  33  35 0
 6-311+G(2d,p)
 ****
 37  38 0
 6-311+G(2d,p)
 ****
 1  2  3  4  5  17  18  19  20  21  22  23  24  25 0
 3-21G
 ****
 27  28  29  34  36  39  40  41  42  43  44  45  46 0
 3-21G
 ****


