%nproc=1
%NoSave
%Mem=1900MB
#P OB98/GEN NMR

erre ene a

0 1
  C     -278.224    -271.203      41.642
  O     -279.563    -271.297      41.211
  H     -277.576    -271.599      40.855
  H     -278.087    -271.803      42.546
  H     -277.938    -270.166      41.842
  P     -280.669    -270.396      41.937
  C     -282.061    -272.509      42.458
  O     -281.466    -271.325      42.978
  C     -283.072    -273.110      43.435
  O     -282.406    -273.459      44.669
  C     -284.192    -272.131      43.797
  O     -285.292    -272.138      42.904
  C     -284.606    -272.626      45.181
  O     -285.614    -273.648      45.091
  C     -283.306    -273.201      45.754
  N     -281.922    -272.430      50.616
  C     -282.718    -273.430      50.092
  N     -283.234    -274.307      50.979
  N     -282.987    -273.540      48.815
  C     -282.484    -272.534      48.065
  C     -281.699    -271.478      48.476
  C     -281.344    -271.408      49.877
  O     -280.629    -270.551      50.388
  N     -281.408    -270.630      47.435
  C     -282.088    -271.125      46.422
  N     -282.689    -272.320      46.733
  O     -281.763    -270.152      40.788
  O     -280.179    -269.091      42.487
  H     -285.928    -273.841      45.994
  H     -282.183    -269.282      40.918
  H     -281.727    -272.413      51.601
  H     -282.140    -270.686      45.431
  H     -283.485    -274.161      46.256
  H     -285.035    -271.812      45.773
  H     -283.129    -274.219      51.978
  H     -283.801    -271.115      43.902
  H     -283.971    -274.938      50.662
  H     -283.472    -274.041      43.012
  H     -281.246    -273.213      42.282
  H     -282.533    -272.306      41.494
  P     -286.443    -271.037      43.009
  C     -288.370    -272.777      43.400
  O     -287.653    -271.650      43.850
  O     -287.023    -270.976      41.518
  O     -286.005    -269.694      43.494
  H     -286.645    -270.220      41.033
  H     -289.134    -273.020      44.109
  H     -287.702    -273.607      43.296
  H     -288.819    -272.560      42.453

 6  7  8  9  10  11  12  13  14  15  26  29  33  34 0
 6-311+G(2d,p)
 ****
 36  38  39  40  41 0
 6-311+G(2d,p)
 ****
 1  2  3  4  5  16  17  18  19  20  21  22  23  24  25 0
 3-21G
 ****
 27  28  30  31  32  35  37  42  43  44  45  46  47 0
 3-21G
 ****
 48  49 0
 3-21G
 ****


