%nproc=1
%NoSave
%Mem=1900MB
#P OB98/GEN NMR

erre ene a

0 1
  C     -237.686     433.157    -485.485
  O     -238.174     431.852    -485.152
  P     -237.676     431.227    -483.756
  C     -239.492     429.367    -483.657
  O     -238.109     429.683    -483.741
  C     -239.801     428.077    -484.415
  O     -239.484     428.208    -485.813
  C     -239.005     426.868    -483.942
  O     -239.557     426.305    -482.761
  C     -239.171     425.924    -485.122
  O     -240.429     425.235    -485.022
  C     -239.182     426.888    -486.321
  N     -236.616     425.404    -490.429
  C     -237.915     425.136    -490.052
  N     -238.647     424.393    -490.917
  N     -238.452     425.567    -488.947
  C     -237.616     426.323    -488.198
  C     -236.304     426.654    -488.460
  C     -235.713     426.152    -489.681
  O     -234.553     426.328    -490.045
  N     -235.783     427.452    -487.474
  C     -236.779     427.624    -486.629
  N     -237.911     426.948    -487.021
  O     -238.668     431.898    -482.690
  O     -236.245     431.507    -483.443
  H     -240.498     424.647    -485.804
  H     -238.234     431.946    -481.818
  H     -236.249     425.043    -491.295
  H     -236.737     428.226    -485.731
  H     -239.961     426.632    -487.045
  H     -238.393     425.156    -485.166
  H     -238.320     424.092    -491.821
  H     -237.944     427.123    -483.816
  H     -239.614     424.218    -490.673
  H     -240.876     427.875    -484.322
  H     -240.087     430.184    -484.075
  H     -239.771     429.280    -482.603
  P     -238.871     426.708    -481.367
  C     -241.051     427.536    -480.224
  O     -240.027     426.560    -480.269
  O     -238.667     428.288    -481.510
  O     -237.593     425.997    -481.078
  H     -237.903     428.579    -480.977
  H     -241.398     427.788    -481.230
  H     -240.680     428.438    -479.724
  H     -241.892     427.136    -479.655
  H     -238.088     433.457    -486.430
  H     -236.618     433.134    -485.542
  H     -237.988     433.854    -484.731

 3  4  5  6  7  8  9  10  11  12  23  26  30  31  33  0
 6-311+G(2d,p)
 ****
 35  36  37  38 0
 6-311+G(2d,p)
 ****
 1  2  13  14  15  16  17  18  19  20  21  22  24  25  27  28  29 0
 3-21G
 ****
 32  34  39  40  41  42  43  44  45  46  47  48  49 0
 3-21G
 ****


