%nproc=1
%NoSave
%Mem=1900MB
#P OB98/GEN NMR

erre ene a

0 1
  C      730.973     814.822     648.651
  O      731.089     813.675     647.803
  P      732.526     812.960     647.704
  C      733.501     814.429     645.775
  O      733.080     813.130     646.214
  C      734.438     814.290     644.572
  O      735.625     813.557     644.908
  C      733.823     813.551     643.416
  O      732.910     814.377     642.689
  C      735.051     813.135     642.605
  O      735.400     814.127     641.622
  C      736.139     813.010     643.684
  N      736.587     811.624     643.874
  C      737.052     810.986     642.717
  O      737.049     811.564     641.620
  N      737.488     809.682     642.826
  C      737.431     809.076     643.965
  N      737.879     807.791     644.018
  C      736.929     809.720     645.199
  C      736.522     810.986     645.087
  O      732.172     811.402     647.798
  O      733.480     813.374     648.789
  H      735.508     814.966     642.116
  H      732.881     810.919     648.252
  H      736.892     809.182     646.146
  H      736.132     811.538     645.931
  H      737.007     813.615     643.413
  H      734.875     812.207     642.046
  H      733.289     812.659     643.774
  H      734.718     815.316     644.259
  H      738.218     807.388     643.156
  H      733.999     814.952     646.598
  H      737.877     807.219     644.855
  H      732.609     815.008     645.533
  P      731.347     814.180     642.946
  C      730.880     813.861     640.447
  O      730.638     814.667     641.604
  O      731.001     815.395     643.954
  O      730.908     812.861     643.512
  H      730.085     815.319     644.260
  H      730.182     814.179     639.660
  H      730.710     812.816     640.657
  H      731.898     814.025     640.086
  H      729.969     815.190     648.618
  H      731.643     815.585     648.313
  H      731.220     814.549     649.656

 3  4  5  6  7  8  9  10  11  12  13  21  23  27  28  29  30  32 0
 6-311+G(2d,p)
 ****
 34  35 0
 6-311+G(2d,p)
 ****
 1  2  14  15  16  17  18  19  20  22  24  25  26 0
 3-21G
 ****
 31  33  36  37  38  39  40  41  42  43  44  45  46 0
 3-21G
 ****


