%nproc=1
%NoSave
%Mem=1900MB
#P OB98/GEN NMR

erre ene a

0 1
  C      -53.481     374.809      10.431
  O      -52.856     375.753      11.280
  H      -54.216     374.249      11.010
  H      -52.737     374.112      10.034
  H      -53.989     375.320       9.607
  P      -51.745     376.700      10.611
  C      -49.375     376.334       9.603
  O      -50.494     375.757      10.269
  C      -48.183     375.386       9.689
  O      -47.758     375.255      11.065
  C      -48.489     373.968       9.223
  O      -48.500     373.850       7.810
  C      -47.359     373.190       9.887
  O      -46.157     373.250       9.112
  C      -47.175     373.936      11.214
  N      -46.542     370.222      14.658
  C      -45.708     370.749      13.733
  N      -45.950     371.751      12.861
  C      -47.192     372.232      13.027
  C      -48.152     371.800      13.929
  C      -47.787     370.744      14.779
  N      -48.641     370.191      15.703
  N      -49.324     372.516      13.773
  C      -49.075     373.371      12.799
  N      -47.799     373.240      12.322
  O      -51.234     377.583      11.844
  O      -52.232     377.549       9.483
  H      -46.354     372.802       8.267
  H      -51.663     378.461      11.817
  H      -44.720     370.301      13.682
  H      -49.779     374.094      12.406
  H      -46.121     374.075      11.467
  H      -47.630     372.141      10.008
  H      -49.446     373.629       9.645
  H      -47.350     375.814       9.112
  H      -49.115     377.283      10.086
  H      -49.645     376.526       8.559
  H      -48.333     369.391      16.229
  H      -49.606     370.494      15.723
  P      -49.718     373.059       7.137
  C      -50.723     370.699       7.618
  O      -49.564     371.514       7.539
  O      -49.372     373.081       5.574
  O      -51.066     373.634       7.419
  H      -50.198     373.155       5.054
  H      -50.442     369.705       7.896
  H      -51.210     370.678       6.666
  H      -51.391     371.099       8.352

 6  7  8  9  10  11  12  13  14  15  25  28  32  33  34  35 0
 6-311+G(2d,p)
 ****
 36  37  40 0
 6-311+G(2d,p)
 ****
 1  2  3  4  5  16  17  18  19  20  21  22  23  24 0
 3-21G
 ****
 26  27  29  30  31  38  39 41  42  43  44  45  46  47  48 0
 3-21G
 ****


