%nproc=1
%NoSave
%Mem=1900MB
#P OB98/GEN NMR

erre ene a

0 1
  C      -46.228      20.066     399.066
  O      -45.051      20.746     398.628
  P      -43.794      20.037     397.948
  C      -41.959      21.585     399.008
  O      -42.609      21.110     397.841
  C      -41.629      23.094     398.949
  O      -42.861      23.859     398.958
  C      -40.845      23.521     400.187
  O      -39.433      23.334     400.239
  C      -41.284      24.956     400.446
  O      -40.418      25.920     399.857
  C      -42.673      25.020     399.801
  N      -45.329      27.970     403.034
  C      -44.220      28.290     402.269
  N      -43.719      29.526     402.415
  N      -43.645      27.446     401.443
  C      -44.194      26.212     401.459
  C      -45.271      25.764     402.190
  C      -45.947      26.719     403.054
  O      -46.933      26.492     403.737
  N      -45.533      24.444     401.955
  C      -44.585      24.069     401.106
  N      -43.747      25.116     400.770
  O      -44.087      19.225     396.730
  O      -43.274      19.024     399.093
  H      -40.291      25.689     398.921
  H      -42.910      18.238     398.634
  H      -45.752      28.656     403.634
  H      -44.472      23.073     400.710
  H      -42.768      25.897     399.144
  H      -41.292      25.165     401.527
  H      -44.039      30.172     403.116
  H      -41.235      22.935     401.027
  H      -42.790      29.695     402.030
  H      -41.122      23.339     398.004
  H      -41.045      21.004     399.123
  H      -42.578      21.386     399.890
  P      -38.620      22.671     401.444
  C      -36.823      24.472     401.770
  O      -37.093      23.148     401.333
  O      -38.528      21.119     401.043
  O      -39.235      22.830     402.797
  H      -38.286      20.574     401.817
  H      -35.845      24.784     401.360
  H      -36.780      24.502     402.858
  H      -37.595      25.167     401.416
  H      -46.914      20.773     399.484
  H      -45.966      19.341     399.808
  H      -46.686      19.574     398.234

 3  4  5  6  7  8  9  10  11  12  23  26  30  31 0
 6-311+G(2d,p)
 ****
 33  35  36  37  38 0
 6-311+G(2d,p)
 ****
 1  2  13  14  15  16  17  18  19  20  21  22  24  25 0
 3-21G
 ****
 27  28  29  32  34  39  40  41  42  43  44  45  46  47  48  49 0
 3-21G
 ****


