%nproc=1
%NoSave
%Mem=1900MB
#P OB98/GEN NMR

erre ene a

0 1
  C     -258.157     484.144     -63.202
  O     -256.761     484.243     -63.414
  H     -258.485     485.022     -62.639
  H     -258.395     483.247     -62.626
  H     -258.687     484.128     -64.159
  P     -256.023     483.051     -64.189
  C     -254.697     484.778     -65.581
  O     -254.627     483.656     -64.710
  C     -253.328     485.448     -65.690
  O     -253.006     486.137     -64.465
  C     -252.176     484.479     -65.954
  O     -252.104     484.153     -67.335
  C     -250.996     485.318     -65.491
  O     -250.681     486.309     -66.492
  C     -251.577     486.006     -64.237
  N     -248.514     485.377     -60.239
  C     -248.324     486.115     -61.393
  N     -247.137     486.749     -61.511
  N     -249.208     486.214     -62.349
  C     -250.321     485.467     -62.130
  C     -250.614     484.679     -61.038
  C     -249.652     484.633     -59.956
  O     -249.792     484.015     -58.903
  N     -251.792     484.000     -61.211
  C     -252.239     484.419     -62.384
  N     -251.375     485.299     -62.987
  O     -256.819     482.361     -65.256
  O     -255.572     482.047     -63.028
  H     -251.527     486.703     -66.778
  H     -256.249     481.361     -62.874
  H     -247.788     485.331     -59.540
  H     -253.172     484.115     -62.836
  H     -251.176     487.018     -64.102
  H     -250.097     484.728     -65.324
  H     -246.363     486.595     -60.880
  H     -252.246     483.586     -65.325
  H     -246.959     487.249     -62.374
  H     -253.391     486.209     -66.481
  H     -255.429     485.477     -65.166
  H     -255.035     484.471     -66.579
  P     -251.378     482.816     -67.849
  C     -253.349     481.891     -69.239
  O     -252.061     482.474     -69.259
  O     -251.372     481.693     -66.868
  O     -249.922     483.299     -68.295
  H     -249.282     483.338     -67.542
  H     -253.678     481.719     -70.242
  H     -254.032     482.552     -68.748
  H     -253.311     480.961     -68.711

 6  7  8  9  10  11  12  13  14  15  26  29  33  34 0
 6-311+G(2d,p)
 ****
 36  38  39  40  41 0
 6-311+G(2d,p)
 ****
 1  2  3  4  5  16  17  18  19  20  21  22  23  24  25 0
 3-21G
 ****
 27  28  30  31  32  35  37  42  43  44  45  46  47 0
 3-21G
 ****
 48  49 0
 3-21G
 ****


