%nproc=1
%NoSave
%Mem=1900MB
#P OB98/GEN NMR

erre ene a

0 1
  C      164.075      93.807    -219.505
  O      163.090      92.795    -219.537
  P      163.410      91.366    -220.190
  C      161.152      90.699    -219.136
  O      161.993      90.614    -220.284
  C      159.758      90.152    -219.442
  O      159.123      90.931    -220.475
  C      159.750      88.714    -219.942
  O      159.939      87.811    -218.868
  C      158.379      88.639    -220.600
  O      157.349      88.387    -219.632
  C      158.230      90.056    -221.197
  N      158.488      90.084    -222.632
  C      157.491      90.672    -223.419
  O      156.457      91.096    -222.901
  N      157.669      90.717    -224.781
  C      158.737      90.199    -225.307
  N      158.849      90.266    -226.662
  C      159.795      89.544    -224.514
  C      159.606      89.521    -223.196
  O      164.503      90.594    -219.532
  O      163.720      91.730    -221.720
  H      157.425      89.097    -218.963
  H      164.608      92.151    -221.817
  H      160.661      89.118    -224.998
  H      160.332      89.057    -222.539
  H      157.216      90.441    -221.025
  H      158.324      87.839    -221.344
  H      160.529      88.581    -220.702
  H      159.152      90.238    -218.529
  H      158.087      90.696    -227.170
  H      161.071      91.750    -218.846
  H      159.619      89.864    -227.174
  H      161.612      90.148    -218.309
  P      160.984      86.608    -219.012
  C      161.763      86.684    -216.569
  O      161.134      85.914    -217.575
  O      162.268      86.952    -219.692
  O      160.175      85.512    -219.857
  H      160.761      85.146    -220.546
  H      161.510      86.260    -215.594
  H      161.428      87.725    -216.602
  H      162.846      86.645    -216.703
  H      163.674      94.680    -219.033
  H      164.373      94.047    -220.504
  H      164.924      93.461    -218.953

 3  4  5  6  7  8  9  10  11  12  13  23  27  28  29  30  32 0
 6-311+G(2d,p)
 ****
 34  35 0
 6-311+G(2d,p)
 ****
 1  2  14  15  16  17  18  19  20  21  22  24  25  26 0
 3-21G
 ****
 31  33  36  37  38  39  40  41  42  43  44  45  46 0
 3-21G
 ****


