%nproc=1
%NoSave
%Mem=1900MB
#P OB98/GEN NMR

erre ene a

0 1
  C     -154.720      90.762    -121.170
  O     -154.862      91.928    -120.354
  P     -155.415      93.254    -121.081
  C     -157.701      93.366    -119.839
  O     -157.019      93.172    -121.071
  C     -159.184      93.633    -120.079
  O     -159.373      94.752    -120.964
  C     -159.929      92.480    -120.738
  O     -160.267      91.469    -119.800
  C     -161.181      93.185    -121.245
  O     -162.140      93.304    -120.179
  C     -160.640      94.569    -121.640
  N     -162.796      94.363    -126.226
  C     -163.346      94.144    -124.980
  N     -164.665      93.855    -124.946
  N     -162.665      94.202    -123.861
  C     -161.365      94.529    -124.045
  C     -160.701      94.768    -125.227
  C     -161.459      94.667    -126.457
  O     -161.013      94.823    -127.587
  N     -159.385      95.081    -125.008
  C     -159.255      95.060    -123.696
  N     -160.429      94.716    -123.067
  O     -155.043      93.000    -122.616
  O     -154.822      94.521    -120.561
  H     -162.899      93.811    -120.531
  H     -154.935      93.853    -123.080
  H     -163.361      94.299    -127.052
  H     -158.348      95.290    -123.159
  H     -161.307      95.374    -121.309
  H     -161.672      92.644    -122.055
  H     -165.265      93.866    -125.759
  H     -159.357      92.077    -121.583
  H     -165.098      93.726    -124.037
  H     -159.650      93.873    -119.113
  H     -157.263      94.211    -119.302
  H     -157.559      92.480    -119.210
  P     -159.759      89.978    -120.112
  C     -158.217      89.816    -118.033
  O     -158.308      89.872    -119.440
  O     -159.458      90.022    -121.686
  O     -160.734      88.905    -119.757
  H     -159.577      89.134    -122.071
  H     -158.977      89.149    -117.611
  H     -158.342      90.821    -117.616
  H     -157.229      89.438    -117.756
  H     -154.347      89.954    -120.576
  H     -154.034      90.965    -121.966
  H     -155.672      90.495    -121.579

 3  4  5  6  7  8  9  10  11  12  23  26  30  31  33  0
 6-311+G(2d,p)
 ****
 35  36  37  38 0
 6-311+G(2d,p)
 ****
 1  2  13  14  15  16  17  18  19  20  21  22  24  25  27  28  29 0
 3-21G
 ****
 32  34  39  40  41  42  43  44  45  46  47  48  49 0
 3-21G
 ****


