%nproc=1
%NoSave
%Mem=1900MB
#P OB98/GEN NMR

erre ene a

0 1
  C     2327.631    -897.270     717.936
  O     2326.667    -898.191     718.477
  P     2327.131    -898.994     719.788
  C     2325.174    -898.453     721.415
  O     2326.533    -898.225     721.056
  C     2324.319    -897.245     721.019
  O     2324.284    -897.019     719.603
  C     2322.846    -897.380     721.458
  O     2322.722    -897.076     722.838
  C     2322.176    -896.359     720.533
  O     2322.255    -895.033     721.098
  C     2323.001    -896.456     719.266
  N     2318.961    -897.018     716.241
  C     2319.147    -896.166     717.310
  N     2318.136    -895.324     717.591
  N     2320.250    -896.132     718.032
  C     2321.174    -897.027     717.617
  C     2321.118    -897.914     716.564
  C     2319.899    -897.918     715.774
  O     2319.679    -898.646     714.808
  N     2322.294    -898.606     716.426
  C     2322.998    -898.248     717.467
  N     2322.412    -897.248     718.189
  O     2328.705    -898.725     719.856
  O     2326.803    -900.462     719.717
  H     2323.106    -894.643     720.862
  H     2329.177    -899.573     719.647
  H     2318.094    -896.997     715.730
  H     2323.968    -898.676     717.726
  H     2323.191    -895.470     718.836
  H     2321.109    -896.582     720.420
  H     2317.272    -895.294     717.103
  H     2322.488    -898.388     721.232
  H     2318.266    -894.673     718.387
  H     2324.757    -896.368     721.498
  H     2325.077    -898.638     722.491
  H     2324.821    -899.365     720.894
  P     2322.766    -898.286     723.868
  C     2324.886    -897.911     725.314
  O     2324.293    -898.594     724.229
  O     2322.307    -899.547     722.988
  O     2321.862    -898.137     725.061
  H     2321.656    -900.090     723.478
  H     2325.663    -898.527     725.733
  H     2324.146    -897.682     726.094
  H     2325.333    -896.969     724.939
  H     2327.221    -896.793     717.070
  H     2328.519    -897.802     717.664
  H     2327.870    -896.531     718.672

 3  4  5  6  7  8  9  10  11  12  23  26  30  31 0
 6-311+G(2d,p)
 ****
 33  35  36  37  38 0
 6-311+G(2d,p)
 ****
 1  2  13  14  15  16  17  18  19  20  21  22  24  25 0
 3-21G
 ****
 27  28  29  32  34  39  40  41  42  43  44  45  46  47  48  49 0
 3-21G
 ****


