%nproc=1
%NoSave
%Mem=1900MB
#P OB98/GEN NMR

erre ene a

0 1
  C      -60.879     -38.803      23.275
  O      -60.416     -38.327      24.528
  P      -61.436     -38.105      25.745
  C      -60.717     -40.246      26.971
  O      -61.782     -39.562      26.322
  C      -61.261     -41.263      27.973
  O      -62.129     -40.579      28.906
  C      -62.073     -42.378      27.324
  O      -61.838     -43.595      28.037
  C      -63.518     -41.968      27.546
  O      -64.389     -43.111      27.553
  C      -63.419     -41.220      28.879
  N      -68.123     -40.187      30.653
  C      -67.372     -41.308      30.701
  N      -66.141     -41.521      30.186
  C      -65.668     -40.400      29.619
  C      -66.316     -39.180      29.498
  C      -67.606     -39.093      30.046
  N      -68.366     -37.943      30.007
  N      -65.524     -38.271      28.824
  C      -64.414     -38.925      28.563
  N      -64.448     -40.211      29.032
  O      -62.624     -37.266      25.427
  O      -60.545     -37.459      26.903
  H      -65.302     -42.776      27.668
  H      -61.055     -36.781      27.386
  H      -67.822     -42.151      31.218
  H      -63.565     -38.522      28.032
  H      -63.475     -41.907      29.732
  H      -63.840     -41.305      26.735
  H      -61.838     -42.514      26.263
  H      -60.421     -41.675      28.545
  H      -60.107     -39.510      27.503
  H      -69.225     -37.939      30.532
  H      -67.917     -37.087      29.714
  H      -60.090     -40.739      26.221
  P      -62.021     -44.953      27.189
  C      -59.495     -45.501      26.891
  O      -60.694     -45.058      26.299
  O      -63.330     -44.992      26.470
  O      -61.851     -46.059      28.334
  H      -61.321     -45.719      29.087
  H      -58.701     -45.467      26.141
  H      -59.601     -46.532      27.237
  H      -59.218     -44.854      27.728
  H      -60.055     -38.885      22.598
  H      -61.600     -38.119      22.878
  H      -61.331     -39.764      23.404

 3  4  5  6  7  8  9  10  11  12  22  25  29  30  31  32 0
 6-311+G(2d,p)
 ****
 33  36  37 0
 6-311+G(2d,p)
 ****
 1  2  13  14  15  16  17  18  19  20  21  23  24  26 0
 3-21G
 ****
 27  28  34  35  38  39  40  41  42  43  44  45  46  47  48 0
 3-21G
 ****


