%nproc=1
%NoSave
%Mem=1900MB
#P OB98/GEN NMR

erre ene a

0 1
  C      124.901      58.640      62.412
  O      125.750      59.754      62.633
  P      125.861      60.856      61.469
  C      123.391      61.621      61.788
  O      124.373      61.091      60.914
  C      122.561      62.691      61.078
  O      121.543      63.172      61.995
  C      123.356      63.912      60.601
  O      122.722      64.384      59.406
  C      123.144      64.916      61.720
  O      123.369      66.259      61.305
  C      121.704      64.602      62.112
  N      120.295      68.489      65.025
  C      120.602      68.459      63.677
  N      120.453      69.620      63.003
  N      121.015      67.390      63.047
  C      121.097      66.301      63.849
  C      120.861      66.214      65.200
  C      120.369      67.392      65.876
  O      120.003      67.442      67.048
  N      121.141      64.961      65.679
  C      121.469      64.273      64.605
  N      121.412      65.030      63.465
  O      126.584      60.055      60.289
  O      126.582      62.115      61.835
  H      124.285      66.317      60.964
  H      127.551      60.193      60.312
  H      119.965      69.338      65.451
  H      121.748      63.231      64.590
  H      120.972      65.084      61.448
  H      123.832      64.699      62.547
  H      120.110      70.474      63.418
  H      124.412      63.702      60.416
  H      120.640      69.619      62.008
  H      122.041      62.220      60.233
  H      123.891      62.082      62.645
  H      122.751      60.812      62.155
  P      123.591      65.282      58.401
  C      124.206      63.474      56.651
  O      124.654      64.321      57.690
  O      124.496      66.156      59.396
  O      122.793      66.164      57.498
  H      124.671      67.028      59.000
  H      125.060      63.203      56.025
  H      123.453      63.967      56.027
  H      123.779      62.565      57.080
  H      124.928      57.996      63.266
  H      125.235      58.102      61.549
  H      123.899      58.981      62.254

 3  4  5  6  7  8  9  10  11  12  23  26  30  31 0
 6-311+G(2d,p)
 ****
 33  35  36  37  38 0
 6-311+G(2d,p)
 ****
 1  2  13  14  15  16  17  18  19  20  21  22  24  25 0
 3-21G
 ****
 27  28  29  32  34  39  40  41  42  43  44  45  46  47  48  49 0
 3-21G
 ****


