%nproc=1
%NoSave
%Mem=1900MB
#P OB98/GEN NMR

erre ene a

0 1
  C       31.417    -158.001    -121.878
  O       30.979    -158.696    -123.029
  H       31.544    -156.939    -122.104
  H       30.663    -158.107    -121.096
  H       32.361    -158.421    -121.518
  P       31.969    -158.687    -124.291
  C       34.281    -159.761    -124.772
  O       33.337    -159.360    -123.791
  C       35.698    -159.496    -124.276
  O       35.959    -158.078    -124.251
  C       35.982    -159.989    -122.861
  O       36.247    -161.383    -122.832
  C       37.223    -159.178    -122.522
  O       38.379    -159.779    -123.135
  C       36.916    -157.829    -123.187
  N       37.920    -154.720    -119.251
  C       38.714    -155.519    -119.994
  N       38.378    -156.302    -121.040
  C       37.068    -156.191    -121.311
  C       36.136    -155.403    -120.658
  C       36.605    -154.642    -119.574
  N       35.767    -153.879    -118.777
  N       34.882    -155.565    -121.213
  C       35.053    -156.451    -122.171
  N       36.356    -156.853    -122.273
  O       32.338    -157.134    -124.441
  O       31.396    -159.243    -125.552
  H       39.124    -159.167    -122.988
  H       31.767    -156.734    -125.122
  H       39.761    -155.537    -119.708
  H       34.267    -156.832    -122.809
  H       37.804    -157.383    -123.649
  H       37.419    -159.123    -121.447
  H       35.176    -159.716    -122.171
  H       36.396    -159.948    -124.993
  H       34.111    -159.197    -125.695
  H       36.096    -153.780    -117.821
  H       34.781    -154.071    -118.903
  H       34.143    -160.827    -124.976
  P       35.954    -162.170    -121.465
  C       33.992    -162.215    -119.781
  O       34.637    -161.506    -120.830
  O       37.134    -161.669    -120.507
  O       35.942    -163.656    -121.575
  H       37.632    -162.438    -120.167
  H       33.135    -161.664    -119.453
  H       34.671    -162.339    -118.964
  H       33.684    -163.176    -120.137

 6  7  8  9  10  11  12  13  14  15  25  28  32  33  34  35 0
 6-311+G(2d,p)
 ****
 36  39  40 0
 6-311+G(2d,p)
 ****
 1  2  3  4  5  16  17  18  19  20  21  22  23  24 0
 3-21G
 ****
 26  27  29  30  31  37  38  41  42  43  44  45  46  47  48 0
 3-21G
 ****


