%nproc=1
%NoSave
%Mem=1900MB
#P OB98/GEN NMR

erre ene a

0 1
  C     -177.139     340.446    -448.797
  O     -176.271     339.695    -447.976
  H     -178.042     340.683    -448.228
  H     -177.424     339.860    -449.674
  H     -176.663     341.379    -449.110
  P     -174.809     339.368    -448.551
  C     -174.533     336.808    -448.215
  O     -174.258     338.109    -447.718
  C     -174.653     335.812    -447.059
  O     -173.438     335.870    -446.266
  C     -175.836     336.086    -446.129
  O     -176.398     334.836    -445.724
  C     -175.202     336.770    -444.931
  O     -175.968     336.611    -443.738
  C     -173.815     336.109    -444.898
  N     -172.843     336.948    -444.205
  C     -173.121     337.260    -442.870
  O     -174.150     336.842    -442.337
  N     -172.262     338.083    -442.189
  C     -171.257     338.620    -442.810
  N     -170.459     339.452    -442.089
  C     -170.963     338.373    -444.236
  C     -171.784     337.530    -444.863
  O     -173.918     340.581    -448.012
  O     -174.725     339.214    -450.033
  H     -175.488     337.048    -443.001
  H     -173.197     340.796    -448.635
  H     -170.130     338.863    -444.716
  H     -171.651     337.293    -445.911
  H     -173.866     335.137    -444.391
  H     -175.105     337.844    -445.131
  H     -176.613     336.702    -446.592
  H     -174.711     334.799    -447.479
  H     -170.703     339.610    -441.117
  H     -173.713     336.496    -448.870
  H     -169.678     339.958    -442.479
  H     -175.462     336.830    -448.797
  P     -177.840     334.467    -446.319
  C     -178.491     332.992    -444.280
  O     -178.297     333.065    -445.688
  O     -177.528     334.113    -447.847
  O     -178.838     335.571    -446.199
  H     -177.867     334.818    -448.430
  H     -178.792     332.001    -444.012
  H     -179.251     333.687    -443.988
  H     -177.576     333.234    -443.781

 6  7  8  9  10  11  12  13  14  15  16  26  30  31  32  33  35 0
 6-311+G(2d,p)
 ****
 37  38 0
 6-311+G(2d,p)
 ****
 1  2  3  4  5  17  18  19  20  21  22  23  24  25 0
 3-21G
 ****
 27  28  29  34  36  39  40  41  42  43  44  45  46 0
 3-21G
 ****


