%nproc=1
%NoSave
%Mem=1900MB
#P OB98/GEN NMR

erre ene a

0 1
  C      130.196     687.162     -85.439
  O      129.205     687.560     -86.378
  P      128.780     689.096     -86.512
  C      127.504     690.812     -84.990
  O      127.856     689.472     -85.273
  C      126.906     690.885     -83.578
  O      127.720     690.128     -82.651
  C      126.828     692.320     -83.072
  O      125.547     692.880     -83.332
  C      127.130     692.173     -81.593
  O      125.952     691.764     -80.875
  C      128.170     691.034     -81.602
  N      129.583     691.372     -81.879
  C      130.286     692.193     -80.994
  O      129.805     692.633     -79.956
  N      131.573     692.503     -81.367
  C      132.211     692.054     -82.486
  O      133.254     692.522     -82.933
  C      131.526     690.986     -83.228
  C      130.256     690.717     -82.911
  O      127.749     689.071     -87.747
  O      129.900     690.058     -86.736
  H      125.361     692.544     -80.833
  H      128.201     689.348     -88.568
  H      132.031     693.216     -80.803
  H      132.048     690.497     -84.035
  H      129.708     689.966     -83.469
  H      128.155     690.471     -80.663
  H      127.443     693.120     -81.158
  H      127.621     692.933     -83.537
  H      125.908     690.435     -83.595
  H      126.790     691.178     -85.733
  H      128.397     691.456     -85.054
  P      125.380     694.460     -83.444
  C      125.615     696.383     -81.758
  O      125.423     694.996     -81.924
  O      124.217     694.938     -84.251
  O      126.776     694.946     -84.064
  H      126.684     695.071     -85.036
  H      125.447     696.641     -80.709
  H      124.909     696.949     -82.382
  H      126.637     696.653     -82.030
  H      130.340     686.103     -85.500
  H      129.877     687.423     -84.452
  H      131.117     687.660     -85.659

 3  4  5  6  7  8  9  10  11  12  13  23  28  29  30  31  32 0
 6-311+G(2d,p)
 ****
 33  34 0
 6-311+G(2d,p)
 ****
 1  2  14  15  16  17  18  19  20  21  22  24  25  26  27 0
 3-21G
 ****
 35  36  37  38  39  40  41  42  43  44  45 0
 3-21G
 ****


