%nproc=1
%NoSave
%Mem=1900MB
#P OB98/GEN NMR

erre ene a

0 1
  C      117.535    -522.973     504.443
  O      116.372    -523.760     504.523
  P      116.430    -525.231     505.168
  C      115.274    -526.138     503.057
  O      116.388    -526.266     503.937
  C      115.521    -526.957     501.780
  O      116.534    -526.329     500.952
  C      116.053    -528.356     502.048
  O      115.180    -529.269     502.689
  C      116.545    -528.743     500.655
  O      115.474    -529.186     499.820
  C      117.103    -527.392     500.138
  N      118.572    -527.362     500.162
  C      119.197    -528.028     499.115
  O      118.608    -528.614     498.218
  N      120.568    -528.034     499.156
  C      121.352    -527.478     500.135
  O      122.570    -527.552     500.133
  C      120.618    -526.787     501.228
  C      119.276    -526.773     501.186
  O      115.425    -525.494     506.242
  O      117.956    -525.356     505.655
  H      114.870    -528.427     499.686
  H      118.619    -525.266     504.948
  H      121.053    -528.519     498.423
  H      121.203    -526.337     502.004
  H      118.718    -526.276     501.981
  H      116.766    -527.210     499.103
  H      117.281    -529.555     500.698
  H      116.935    -528.275     502.681
  H      114.588    -526.971     501.196
  H      115.150    -525.081     502.783
  H      114.354    -526.466     503.555
  P      115.702    -530.615     503.394
  C      113.922    -531.917     502.007
  O      115.265    -531.861     502.476
  O      115.476    -530.731     504.870
  O      117.287    -530.548     503.107
  H      117.758    -530.979     503.854
  H      113.793    -532.832     501.445
  H      113.729    -531.061     501.335
  H      113.223    -531.907     502.843
  H      117.300    -522.034     503.987
  H      118.270    -523.481     503.854
  H      117.920    -522.805     505.427

 3  4  5  6  7  8  9  10  11  12  13  23  28  29  30  31  32 0
 6-311+G(2d,p)
 ****
 33  34 0
 6-311+G(2d,p)
 ****
 1  2  14  15  16  17  18  19  20  21  22  24  25  26  27 0
 3-21G
 ****
 35  36  37  38  39  40  41  42  43  44  45 0
 3-21G
 ****


