%nproc=1
%NoSave
%Mem=1900MB
#P OB98/GEN NMR

erre ene a

0 1
  C     -203.171    -185.552      95.167
  O     -203.002    -184.437      94.312
  H     -204.230    -185.823      95.185
  H     -202.855    -185.299      96.184
  H     -202.594    -186.404      94.794
  P     -201.501    -183.896      94.130
  C     -202.275    -182.635      92.004
  O     -201.668    -182.541      93.288
  C     -202.848    -181.282      91.581
  O     -203.954    -180.915      92.425
  C     -201.855    -180.126      91.673
  O     -201.002    -180.101      90.533
  C     -202.806    -178.938      91.685
  O     -203.247    -178.651      90.346
  C     -203.985    -179.464      92.527
  N     -205.929    -176.325      96.101
  C     -206.038    -176.329      94.755
  N     -205.460    -177.171      93.867
  C     -204.697    -178.078      94.495
  C     -204.485    -178.194      95.862
  C     -205.150    -177.272      96.684
  N     -205.040    -177.275      98.062
  N     -203.638    -179.247      96.139
  C     -203.385    -179.788      94.964
  N     -203.972    -179.095      93.933
  O     -200.516    -184.885      93.606
  O     -201.194    -183.345      95.607
  H     -203.612    -177.745      90.342
  H     -201.985    -182.917      95.981
  H     -206.679    -175.563      94.334
  H     -202.797    -180.687      94.804
  H     -204.949    -179.128      92.128
  H     -202.330    -178.031      92.066
  H     -201.296    -180.149      92.612
  H     -203.237    -181.386      90.560
  H     -203.071    -183.388      92.015
  H     -205.410    -176.479      98.559
  H     -204.367    -177.897      98.482
  H     -201.502    -182.953      91.297
  P     -199.457    -179.697      90.681
  C     -198.758    -181.992      89.748
  O     -198.649    -180.577      89.608
  O     -198.914    -179.763      92.072
  O     -199.369    -178.220      90.077
  H     -198.743    -177.675      90.597
  H     -198.182    -182.471      88.984
  H     -199.784    -182.282      89.656
  H     -198.389    -182.285      90.709

 6  7  8  9  10  11  12  13  14  15  25  28  32  33  34  35 0
 6-311+G(2d,p)
 ****
 36  39  40 0
 6-311+G(2d,p)
 ****
 1  2  3  4  5  16  17  18  19  20  21  22  23  24 0
 3-21G
 ****
 26  27  29  30  31  37  38  41  42  43  44  45  46  47 0
 3-21G
 ****
 48 0
 3-21G
 ****


