%nproc=1
%NoSave
%Mem=1900MB
#P OB98/GEN NMR

erre ene a

0 1
  C      103.311     -34.079     134.212
  O      102.594     -33.484     133.144
  P      100.991     -33.419     133.170
  C       99.062     -35.083     132.812
  O      100.468     -34.923     132.963
  C       98.656     -36.539     133.028
  O       98.788     -36.859     134.434
  C       97.217     -36.837     132.625
  O       97.154     -38.155     132.067
  C       96.451     -36.837     133.935
  O       95.267     -37.650     133.847
  C       97.519     -37.346     134.909
  N       94.696     -37.788     139.178
  C       94.654     -38.450     138.001
  N       95.417     -38.264     136.900
  C       96.337     -37.311     137.122
  C       96.507     -36.553     138.271
  C       95.628     -36.821     139.337
  N       95.683     -36.150     140.542
  N       97.538     -35.648     138.113
  C       97.996     -35.872     136.902
  N       97.310     -36.874     136.264
  O      100.384     -32.420     132.248
  O      100.628     -33.116     134.697
  H       94.765     -37.343     133.064
  H       99.868     -32.506     134.752
  H       93.903     -39.235     137.930
  H       98.807     -35.333     136.433
  H       97.560     -38.444     134.925
  H       96.139     -35.814     134.179
  H       96.817     -36.110     131.910
  H       99.358     -37.183     132.477
  H       98.789     -34.778     131.796
  H       95.096     -36.492     141.287
  H       96.482     -35.557     140.721
  H       98.542     -34.428     133.523
  P       96.002     -38.398     130.966
  C       93.524     -37.601     131.011
  O       94.632     -38.087     131.736
  O       96.131     -39.732     130.308
  O       96.235     -37.146     129.991
  H       96.670     -36.402     130.459
  H       92.702     -37.413     131.709
  H       93.192     -38.347     130.282
  H       93.776     -36.670     130.501
  H      104.361     -34.025     134.011
  H      103.019     -35.104     134.311
  H      103.095     -33.558     135.121

 3  4  5  6  7  8  9  10  11  12  22  25  29  30  31  32 0
 6-311+G(2d,p)
 ****
 33  36  37 0
 6-311+G(2d,p)
 ****
 1  2  13  14  15  16  17  18  19  20  21  23  24  26 0
 3-21G
 ****
 27  28  34  35  38  39  40  41  42  43  44  45  46  47  48 0
 3-21G
 ****


