%nproc=1
%NoSave
%Mem=1900MB
#P OB98/GEN NMR

erre ene a

0 1
  C      548.425     417.955    -511.604
  O      549.677     418.512    -512.003
  P      550.711     417.543    -512.754
  C      552.691     418.249    -511.185
  O      552.182     418.117    -512.505
  C      553.488     419.559    -511.033
  O      554.866     419.306    -511.442
  C      553.022     420.715    -511.908
  O      553.548     421.935    -511.376
  C      553.706     420.406    -513.224
  O      553.755     421.554    -514.067
  C      555.074     419.860    -512.765
  N      555.619     418.816    -513.667
  C      556.646     419.159    -514.537
  O      557.127     420.290    -514.614
  N      557.087     418.164    -515.373
  C      556.643     416.878    -515.394
  O      557.008     416.048    -516.225
  C      555.659     416.527    -514.361
  C      555.200     417.492    -513.566
  O      550.433     417.838    -514.311
  O      550.540     416.101    -512.418
  H      554.309     421.314    -514.849
  H      549.941     417.088    -514.703
  H      557.786     418.424    -516.062
  H      555.338     415.499    -514.299
  H      554.453     417.253    -512.807
  H      555.825     420.655    -512.707
  H      553.150     419.637    -513.756
  H      551.940     420.796    -512.017
  H      553.511     419.846    -509.980
  H      553.309     417.393    -510.934
  H      551.853     418.259    -510.477
  P      552.539     422.930    -510.620
  C      553.640     425.010    -511.658
  O      553.310     424.329    -510.462
  O      551.893     422.396    -509.380
  O      551.449     423.260    -511.762
  H      550.637     423.602    -511.346
  H      553.661     426.082    -511.461
  H      552.921     424.803    -512.455
  H      554.641     424.692    -511.977
  H      547.839     418.707    -511.118
  H      548.595     417.143    -510.928
  H      547.903     417.597    -512.467

 3  4  5  6  7  8  9  10  11  12  13  23  28  29  30  31  32 0
 6-311+G(2d,p)
 ****
 33  34 0
 6-311+G(2d,p)
 ****
 1  2  14  15  16  17  18  19  20  21  22  24  25  26  27 0
 3-21G
 ****
 35  36  37  38  39  40  41  42  43  44  45 0
 3-21G
 ****


