%nproc=1
%NoSave
%Mem=1900MB
#P OB98/GEN NMR

erre ene a

0 1
  C      -52.504    -695.355    -326.328
  O      -51.977    -696.152    -327.392
  P      -51.673    -695.446    -328.799
  C      -49.110    -694.921    -328.396
  O      -50.422    -694.467    -328.649
  C      -48.504    -695.485    -329.688
  O      -48.378    -694.437    -330.678
  C      -47.113    -696.091    -329.491
  O      -47.173    -697.448    -329.099
  C      -46.496    -695.892    -330.863
  O      -46.984    -696.889    -331.787
  C      -47.033    -694.490    -331.248
  N      -46.287    -693.303    -330.784
  C      -45.307    -692.739    -331.604
  O      -44.998    -693.167    -332.713
  N      -44.670    -691.629    -331.106
  C      -45.016    -690.930    -329.976
  O      -44.444    -689.918    -329.617
  C      -46.144    -691.489    -329.232
  C      -46.711    -692.626    -329.642
  O      -52.906    -694.457    -329.008
  O      -51.522    -696.401    -329.954
  H      -47.963    -696.861    -331.751
  H      -53.439    -694.730    -329.783
  H      -43.906    -691.256    -331.653
  H      -46.477    -690.943    -328.353
  H      -47.550    -693.037    -329.099
  H      -47.135    -694.396    -332.335
  H      -45.411    -696.018    -330.833
  H      -46.539    -695.496    -328.777
  H      -49.196    -696.250    -330.089
  H      -49.101    -695.695    -327.615
  H      -48.500    -694.092    -328.019
  P      -46.758    -697.848    -327.603
  C      -48.945    -699.028    -326.935
  O      -48.132    -697.881    -326.764
  O      -45.644    -697.063    -326.995
  O      -46.395    -699.410    -327.730
  H      -45.420    -699.540    -327.832
  H      -49.751    -699.007    -326.192
  H      -48.349    -699.946    -326.779
  H      -49.379    -699.035    -327.937
  H      -52.651    -695.967    -325.463
  H      -53.440    -694.932    -326.629
  H      -51.816    -694.569    -326.096

 3  4  5  6  7  8  9  10  11  12  13  23  28  29  30  31  32 0
 6-311+G(2d,p)
 ****
 33  34 0
 6-311+G(2d,p)
 ****
 1  2  14  15  16  17  18  19  20  21  22  24  25  26  27 0
 3-21G
 ****
 35  36  37  38  39  40  41  42  43  44  45 0
 3-21G
 ****


