%nproc=1
%NoSave
%Mem=1900MB
#P OB98/GEN NMR

erre ene a

0 1
  C       91.304    -159.502    -223.290
  O       90.961    -160.703    -222.628
  H       90.476    -158.793    -223.234
  H       92.178    -159.065    -222.798
  H       91.553    -159.704    -224.335
  P       89.683    -161.489    -223.199
  C       88.657    -161.506    -220.823
  O       88.466    -161.182    -222.193
  C       87.405    -161.152    -220.023
  O       87.235    -159.710    -220.063
  C       86.116    -161.799    -220.556
  O       85.401    -162.442    -219.494
  C       85.291    -160.630    -221.056
  O       83.893    -160.814    -220.867
  C       85.833    -159.464    -220.237
  N       84.072    -154.723    -219.583
  C       84.514    -155.643    -218.697
  N       85.061    -156.850    -218.943
  C       85.164    -157.065    -220.265
  C       84.780    -156.213    -221.288
  C       84.190    -154.998    -220.903
  N       83.688    -154.086    -221.806
  N       85.036    -156.781    -222.522
  C       85.527    -157.973    -222.247
  N       85.608    -158.195    -220.897
  O       90.037    -163.024    -222.907
  O       89.405    -161.254    -224.644
  H       83.764    -161.154    -219.963
  H       90.075    -163.504    -223.757
  H       84.407    -155.374    -217.649
  H       85.793    -158.727    -222.979
  H       85.375    -159.418    -219.241
  H       85.482    -160.488    -222.127
  H       86.308    -162.524    -221.353
  H       87.568    -161.428    -218.974
  H       89.506    -160.936    -220.427
  H       83.178    -153.297    -221.444
  H       83.675    -154.337    -222.786
  H       88.878    -162.574    -220.735
  P       85.922    -163.904    -219.069
  C       83.638    -165.003    -219.637
  O       85.044    -164.994    -219.859
  O       85.437    -164.038    -217.550
  O       87.402    -164.072    -219.186
  H       86.200    -164.226    -216.972
  H       83.189    -165.776    -220.225
  H       83.226    -164.056    -219.918
  H       83.442    -165.184    -218.601

 6  7  8  9  10  11  12  13  14  15  25  28  32  33  34  35 0
 6-311+G(2d,p)
 ****
 36  39  40 0
 6-311+G(2d,p)
 ****
 1  2  3  4  5  16  17  18  19  20  21  22  23  24 0
 3-21G
 ****
 26  27  29  30  31  37  38  41  42  43  44  45  46  47  48 0
 3-21G
 ****


