%nproc=1
%NoSave
%Mem=1900MB
#P OB98/GEN NMR

erre ene a

0 1
  C     -290.239     328.703    -191.703
  O     -288.829     328.709    -191.780
  H     -290.563     328.782    -190.661
  H     -290.626     329.560    -192.261
  H     -290.636     327.785    -192.147
  P     -288.063     327.583    -190.932
  C     -288.524     328.237    -188.467
  O     -288.883     327.409    -189.563
  C     -288.318     327.394    -187.214
  O     -289.443     326.511    -187.019
  C     -287.095     326.487    -187.249
  O     -285.895     327.199    -186.973
  C     -287.438     325.510    -186.133
  O     -287.124     326.101    -184.858
  C     -288.960     325.356    -186.282
  N     -291.738     321.046    -186.033
  C     -291.555     322.053    -185.147
  N     -290.795     323.157    -185.275
  C     -290.191     323.187    -186.475
  C     -290.285     322.235    -187.479
  C     -291.099     321.117    -187.222
  N     -291.266     320.088    -188.125
  N     -289.541     322.609    -188.576
  C     -289.002     323.766    -188.244
  N     -289.364     324.153    -186.980
  O     -286.715     328.317    -190.464
  O     -287.769     326.319    -191.669
  H     -287.430     325.471    -184.176
  H     -285.988     327.668    -190.459
  H     -292.094     321.954    -184.207
  H     -288.357     324.354    -188.885
  H     -289.462     325.368    -185.307
  H     -286.887     324.569    -186.201
  H     -287.030     325.943    -188.199
  H     -288.276     328.075    -186.353
  H     -289.323     328.965    -188.283
  H     -292.003     319.425    -187.966
  H     -290.784     320.157    -189.017
  H     -287.604     328.776    -188.719
  P     -284.619     326.882    -187.894
  C     -283.862     325.138    -186.129
  O     -284.157     325.400    -187.496
  O     -283.478     327.808    -187.258
  O     -284.807     327.152    -189.348
  H     -282.799     328.010    -187.933
  H     -283.570     324.115    -186.017
  H     -284.731     325.328    -185.534
  H     -283.064     325.774    -185.808

 6  7  8  9  10  11  12  13  14  15  25  28  32  33  34  35 0
 6-311+G(2d,p)
 ****
 36  39  40 0
 6-311+G(2d,p)
 ****
 1  2  3  4  5  16  17  18  19  20  21  22  23  24 0
 3-21G
 ****
 26  27  29  30  31  37  38  41  42  43  44  45  46  47  48 0
 3-21G
 ****


