%nproc=1
%NoSave
%Mem=1900MB
#P OB98/GEN NMR

erre ene a

0 1
  C     1137.439    -282.366    -822.238
  O     1136.890    -281.050    -822.133
  P     1137.018    -280.285    -820.717
  C     1138.597    -278.416    -821.623
  O     1138.405    -279.481    -820.699
  C     1139.892    -277.650    -821.282
  O     1141.045    -278.517    -821.277
  C     1140.199    -276.549    -822.281
  O     1139.480    -275.350    -821.985
  C     1141.696    -276.332    -822.012
  O     1141.857    -275.524    -820.825
  C     1142.190    -277.762    -821.740
  N     1146.413    -278.499    -824.439
  C     1146.214    -277.799    -823.253
  N     1147.317    -277.214    -822.726
  N     1145.057    -277.690    -822.669
  C     1144.056    -278.334    -823.335
  C     1144.120    -279.044    -824.494
  C     1145.404    -279.159    -825.156
  O     1145.648    -279.749    -826.186
  N     1142.901    -279.553    -824.853
  C     1142.086    -279.147    -823.886
  N     1142.739    -278.399    -822.941
  O     1137.274    -281.495    -819.697
  O     1135.799    -279.490    -820.333
  H     1141.547    -276.071    -820.087
  H     1136.944    -281.260    -818.813
  H     1147.320    -278.553    -824.853
  H     1141.023    -279.392    -823.836
  H     1142.957    -277.801    -820.963
  H     1142.191    -275.808    -822.834
  H     1148.241    -277.312    -823.104
  H     1140.048    -276.872    -823.312
  H     1147.199    -276.728    -821.811
  H     1139.757    -277.216    -820.276
  H     1137.734    -277.742    -821.587
  H     1138.627    -278.834    -822.645
  P     1138.227    -274.977    -822.933
  C     1136.504    -275.231    -820.985
  O     1136.938    -275.684    -822.263
  O     1138.503    -275.847    -824.245
  O     1138.086    -273.543    -823.246
  H     1138.170    -275.402    -825.040
  H     1135.527    -275.704    -820.776
  H     1136.364    -274.146    -821.011
  H     1137.227    -275.513    -820.227
  H     1137.279    -282.741    -823.227
  H     1136.960    -283.010    -821.530
  H     1138.489    -282.332    -822.035

 3  4  5  6  7  8  9  10  11  12  23  26  30  31 0
 6-311+G(2d,p)
 ****
 33  35  36  37  38 0
 6-311+G(2d,p)
 ****
 1  2  13  14  15  16  17  18  19  20  21  22  24  25 0
 3-21G
 ****
 27  28  29  32  34  39  40  41  42  43  44  45  46  47  48  49 0
 3-21G
 ****


