%nproc=1
%NoSave
%Mem=1900MB
#P OB98/GEN NMR

erre ene a

0 1
  C      -27.105     -24.209      53.223
  O      -26.464     -23.252      54.051
  P      -27.203     -21.885      54.442
  C      -25.911     -20.504      52.700
  O      -27.188     -20.965      53.127
  C      -26.016     -19.804      51.347
  O      -26.639     -20.706      50.401
  C      -26.854     -18.531      51.385
  O      -26.283     -17.573      50.490
  C      -28.205     -18.953      50.833
  O      -28.901     -17.839      50.249
  C      -27.798     -20.053      49.848
  N      -31.696     -21.573      46.872
  C      -30.825     -20.547      46.756
  N      -29.831     -20.185      47.598
  C      -29.745     -21.049      48.622
  C      -30.558     -22.144      48.871
  C      -31.579     -22.398      47.938
  N      -32.458     -23.453      48.051
  N      -30.184     -22.776      50.042
  C      -29.152     -22.086      50.476
  N      -28.841     -21.040      49.648
  O      -26.687     -21.218      55.671
  O      -28.743     -22.286      54.586
  H      -29.083     -17.203      50.971
  H      -29.153     -21.799      55.326
  H      -30.946     -19.927      45.871
  H      -28.605     -22.293      51.383
  H      -27.521     -19.637      48.872
  H      -28.826     -19.350      51.646
  H      -26.932     -18.102      52.390
  H      -25.003     -19.592      50.982
  H      -25.247     -21.369      52.607
  H      -33.075     -23.627      47.274
  H      -32.263     -24.163      48.745
  H      -25.497     -19.828      53.455
  P      -26.243     -16.052      51.018
  C      -28.243     -15.290      49.537
  O      -27.741     -15.517      50.834
  O      -25.151     -15.264      50.371
  O      -26.065     -16.276      52.594
  H      -26.410     -17.152      52.875
  H      -29.259     -14.894      49.619
  H      -28.283     -16.228      48.977
  H      -27.622     -14.563      49.006
  H      -26.456     -25.047      53.077
  H      -27.333     -23.766      52.276
  H      -28.010     -24.536      53.691

 3  4  5  6  7  8  9  10  11  12  22  25  29  30  31  32 0
 6-311+G(2d,p)
 ****
 33  36  37 0
 6-311+G(2d,p)
 ****
 1  2  13  14  15  16  17  18  19  20  21  23  24  26 0
 3-21G
 ****
 27  28  34  35  38  39  40  41  42  43  44  45  46  47  48 0
 3-21G
 ****


