%nproc=1
%NoSave
%Mem=1900MB
#P OB98/GEN NMR

erre ene a

0 1
  C     -430.959     257.183     484.373
  O     -431.438     256.719     485.640
  P     -432.673     257.471     486.333
  C     -433.648     255.267     487.265
  O     -433.200     256.591     487.575
  C     -433.834     254.448     488.551
  O     -432.525     254.088     489.112
  C     -434.617     255.194     489.644
  O     -435.706     254.441     490.181
  C     -433.544     255.602     490.642
  O     -434.050     255.828     491.942
  C     -432.495     254.488     490.492
  N     -431.153     254.919     490.916
  C     -430.875     254.825     492.266
  O     -431.697     254.490     493.119
  N     -429.614     255.215     492.646
  C     -428.657     255.741     491.828
  O     -427.562     256.116     492.218
  C     -429.036     255.874     490.405
  C     -430.258     255.454     490.023
  O     -433.738     257.954     485.408
  O     -431.969     258.716     487.081
  H     -434.193     254.962     492.383
  H     -432.557     259.491     486.997
  H     -429.380     255.149     493.634
  H     -428.309     256.303     489.723
  H     -430.554     255.544     488.989
  H     -432.755     253.618     491.112
  H     -433.091     256.547     490.309
  H     -435.100     256.095     489.237
  H     -434.351     253.517     488.279
  H     -432.911     254.765     486.630
  H     -434.569     255.326     486.693
  P     -437.237     254.630     489.789
  C     -438.101     252.305     490.552
  O     -438.130     253.713     490.755
  O     -437.550     254.504     488.319
  O     -437.559     256.114     490.295
  H     -438.119     256.560     489.638
  H     -439.005     251.872     490.991
  H     -437.223     251.888     491.060
  H     -438.065     252.042     489.473
  H     -430.138     256.574     484.057
  H     -430.635     258.199     484.464
  H     -431.746     257.124     483.651

 3  4  5  6  7  8  9  10  11  12  13  23  28  29  30  31  32 0
 6-311+G(2d,p)
 ****
 33  34 0
 6-311+G(2d,p)
 ****
 1  2  14  15  16  17  18  19  20  21  22  24  25  26  27 0
 3-21G
 ****
 35  36  37  38  39  40  41  42  43  44  45 0
 3-21G
 ****


