%nproc=1
%NoSave
%Mem=1900MB
#P OB98/GEN NMR

erre ene a

0 1
  C     -378.132     264.459    -515.994
  O     -376.819     264.184    -516.432
  H     -378.716     264.828    -516.841
  H     -378.117     265.235    -515.220
  H     -378.611     263.556    -515.605
  P     -375.799     263.473    -515.418
  C     -375.938     261.427    -516.981
  O     -375.949     261.890    -515.633
  C     -377.190     260.598    -517.249
  O     -378.375     261.411    -517.067
  C     -377.284     260.064    -518.675
  O     -376.402     258.969    -518.880
  C     -378.762     259.731    -518.766
  O     -379.044     258.460    -518.177
  C     -379.396     260.870    -517.936
  N     -379.970     261.915    -518.788
  C     -381.322     261.790    -519.090
  O     -382.028     260.867    -518.675
  N     -381.829     262.726    -519.952
  C     -381.108     263.668    -520.622
  O     -381.553     264.321    -521.558
  C     -379.704     263.795    -520.216
  C     -379.201     262.920    -519.341
  O     -375.874     263.933    -514.002
  O     -374.359     263.786    -516.060
  H     -373.940     264.510    -515.562
  H     -380.019     258.340    -518.262
  H     -382.802     262.615    -520.206
  H     -379.107     264.581    -520.669
  H     -378.148     262.977    -519.045
  H     -380.190     260.477    -517.287
  H     -379.103     259.704    -519.804
  H     -377.050     260.865    -519.387
  H     -377.225     259.776    -516.523
  H     -375.050     260.803    -517.127
  H     -375.894     262.286    -517.655
  P     -375.038     259.173    -519.682
  C     -373.593     257.564    -518.299
  O     -373.812     258.918    -518.682
  O     -374.949     260.442    -520.475
  O     -374.969     257.896    -520.650
  H     -374.786     258.201    -521.566
  H     -372.756     257.512    -517.635
  H     -373.395     256.975    -519.170
  H     -374.464     257.188    -517.804

 6  7  8  9  10  11  12  13  14  15  16  27  31  32  33  34  35 0
 6-311+G(2d,p)
 ****
 36  37 0
 6-311+G(2d,p)
 ****
 1  2  3  4  5  17  18  19  20  21  22  23  24  25 0
 3-21G
 ****
 26  28  29  30  38  39  40  41  42  43  44  45 0
 3-21G
 ****


