%nproc=1
%NoSave
%Mem=1900MB
#P OB98/GEN NMR

erre ene a

0 1
  C      223.665    -298.607     272.186
  O      223.391    -297.342     272.796
  P      224.574    -296.653     273.634
  C      225.021    -294.265     274.569
  O      224.059    -295.238     274.175
  C      224.349    -292.901     274.749
  O      223.748    -292.450     273.520
  C      223.219    -292.920     275.764
  O      223.729    -292.905     277.080
  C      222.436    -291.666     275.387
  O      222.910    -290.511     276.101
  C      222.703    -291.524     273.872
  N      221.511    -291.736     273.068
  C      220.566    -290.708     273.094
  O      220.753    -289.707     273.791
  N      219.417    -290.855     272.355
  C      219.225    -291.942     271.670
  N      218.068    -292.028     270.963
  C      220.188    -293.059     271.634
  C      221.298    -292.891     272.352
  O      225.637    -296.255     272.503
  O      225.179    -297.547     274.671
  H      222.261    -289.805     275.921
  H      226.543    -296.317     272.859
  H      219.980    -293.948     271.059
  H      222.061    -293.663     272.386
  H      223.089    -290.523     273.647
  H      221.372    -291.771     275.632
  H      222.589    -293.807     275.606
  H      225.113    -292.169     275.052
  H      217.430    -291.247     271.006
  H      225.817    -294.195     273.820
  H      217.813    -292.832     270.400
  H      225.495    -294.595     275.502
  P      223.156    -293.976     278.117
  C      224.641    -295.135     279.867
  O      224.138    -293.902     279.388
  O      223.591    -295.368     277.444
  O      221.692    -293.934     278.410
  H      223.212    -296.113     277.943
  H      225.448    -294.925     280.581
  H      225.044    -295.728     279.043
  H      223.850    -295.686     280.378
  H      222.795    -298.947     271.664
  H      223.928    -299.318     272.941
  H      224.477    -298.502     271.497

 3  4  5  6  7  8  9  10  11  12  13  21  23  27  28  29  30  32 0
 6-311+G(2d,p)
 ****
 34  35 0
 6-311+G(2d,p)
 ****
 1  2  14  15  16  17  18  19  20  22  24  25  26 0
 3-21G
 ****
 31  33  36  37  38  39  40  41  42  43  44  45  46 0
 3-21G
 ****


