%nproc=1
%NoSave
%Mem=1900MB
#P OB98/GEN NMR

erre ene a

0 1
  C      286.872    -188.059      68.355
  O      285.457    -188.053      68.320
  H      287.211    -189.069      68.588
  H      287.225    -187.379      69.137
  H      287.280    -187.760      67.385
  P      284.753    -186.698      67.812
  C      284.792    -185.493      70.143
  O      285.266    -185.552      68.808
  C      284.848    -184.056      70.667
  O      284.265    -184.023      71.993
  C      286.259    -183.488      70.765
  O      286.220    -182.103      70.419
  C      286.607    -183.643      72.237
  O      287.618    -182.720      72.645
  C      285.233    -183.452      72.895
  N      285.164    -184.078      74.217
  C      285.639    -183.321      75.294
  O      286.111    -182.200      75.105
  N      285.612    -183.869      76.552
  C      285.212    -185.093      76.714
  N      285.229    -185.587      77.980
  C      284.752    -185.945      75.598
  C      284.744    -185.374      74.395
  O      283.233    -186.938      68.251
  O      284.943    -186.418      66.359
  H      287.217    -181.822      72.663
  H      283.141    -187.343      69.130
  H      284.443    -186.965      75.780
  H      284.415    -185.927      73.520
  H      285.001    -182.387      73.004
  H      286.985    -184.655      72.426
  H      286.982    -184.003      70.130
  H      284.210    -183.431      70.030
  H      285.569    -184.977      78.716
  H      285.394    -186.139      70.789
  H      284.990    -186.539      78.213
  H      283.763    -185.862      70.152
  P      286.753    -181.641      68.978
  C      288.922    -180.423      69.663
  O      288.355    -181.554      69.018
  O      286.071    -180.455      68.384
  O      286.508    -182.944      68.069
  H      286.206    -182.645      67.188
  H      289.989    -180.486      69.620
  H      288.607    -180.400      70.685
  H      288.597    -179.531      69.169

 6  7  8  9  10  11  12  13  14  15  16  26  30  31  32  33  35 0
 6-311+G(2d,p)
 ****
 37  38 0
 6-311+G(2d,p)
 ****
 1  2  3  4  5  17  18  19  20  21  22  23  24  25 0
 3-21G
 ****
 27  28  29  34  36  39  40  41  42  43  44  45  46 0
 3-21G
 ****


