%nproc=1
%NoSave
%Mem=1900MB
#P OB98/GEN NMR

erre ene a

0 1
  C     -167.637    -207.308    -354.689
  O     -167.740    -206.794    -356.001
  H     -166.967    -206.664    -354.113
  H     -167.219    -208.319    -354.716
  H     -168.619    -207.323    -354.204
  P     -168.820    -207.492    -356.966
  C     -170.376    -205.633    -355.958
  O     -170.247    -206.939    -356.489
  C     -171.461    -205.592    -354.881
  O     -172.756    -205.513    -355.527
  C     -171.467    -206.820    -353.966
  O     -171.833    -206.401    -352.651
  C     -172.577    -207.681    -354.547
  O     -173.106    -208.592    -353.589
  C     -173.560    -206.607    -355.041
  N     -174.465    -207.111    -356.072
  C     -175.812    -207.243    -355.716
  O     -176.184    -206.952    -354.579
  N     -176.697    -207.737    -356.640
  C     -176.265    -208.131    -357.797
  N     -177.190    -208.639    -358.661
  C     -174.847    -208.053    -358.200
  C     -174.012    -207.529    -357.302
  O     -168.803    -209.002    -356.437
  O     -168.534    -207.344    -358.423
  H     -172.373    -209.151    -353.251
  H     -168.811    -209.075    -355.469
  H     -174.534    -208.404    -359.173
  H     -172.957    -207.428    -357.516
  H     -174.168    -206.228    -354.208
  H     -172.196    -208.264    -355.392
  H     -170.503    -207.331    -353.941
  H     -171.341    -204.670    -354.298
  H     -178.148    -208.694    -358.335
  H     -170.626    -204.921    -356.751
  H     -176.959    -209.024    -359.564
  H     -169.409    -205.342    -355.535
  P     -170.926    -206.834    -351.403
  C     -170.542    -204.483    -350.399
  O     -169.953    -205.623    -351.011
  O     -170.270    -208.170    -351.512
  O     -171.977    -206.832    -350.187
  H     -171.784    -207.610    -349.627
  H     -169.783    -203.757    -350.192
  H     -171.016    -204.774    -349.485
  H     -171.270    -204.060    -351.059

 6  7  8  9  10  11  12  13  14  15  16  26  30  31  32  33  35 0
 6-311+G(2d,p)
 ****
 37  38 0
 6-311+G(2d,p)
 ****
 1  2  3  4  5  17  18  19  20  21  22  23  24  25 0
 3-21G
 ****
 27  28  29  34  36  39  40  41  42  43  44  45  46 0
 3-21G
 ****


