%nproc=1
%NoSave
%Mem=1900MB
#P OB98/GEN NMR

erre ene a

0 1
  C     -917.974     267.291     813.117
  O     -916.644     267.101     813.641
  P     -915.591     266.128     812.936
  C     -915.701     263.914     814.256
  O     -916.075     264.590     813.044
  C     -916.073     262.408     814.217
  O     -915.322     261.697     813.192
  C     -915.816     261.671     815.554
  O     -916.816     260.651     815.627
  C     -914.446     261.077     815.332
  O     -914.148     259.991     816.198
  C     -914.567     260.670     813.857
  N     -911.225     257.272     811.964
  C     -912.503     257.147     812.353
  N     -913.323     258.096     812.823
  C     -912.738     259.309     812.808
  C     -911.433     259.592     812.422
  C     -910.657     258.493     812.008
  N     -909.320     258.623     811.659
  N     -911.160     260.932     812.597
  C     -912.290     261.439     813.066
  N     -913.255     260.502     813.214
  O     -914.177     266.340     813.375
  O     -915.733     266.451     811.373
  H     -914.823     259.302     816.082
  H     -914.837     266.538     810.984
  H     -912.907     256.139     812.295
  H     -912.410     262.479     813.340
  H     -915.120     259.720     813.730
  H     -913.677     261.844     815.478
  H     -915.879     262.317     816.427
  H     -917.119     262.346     813.934
  H     -916.194     264.386     815.087
  H     -908.819     257.760     811.439
  H     -908.854     259.503     811.778
  H     -914.615     264.014     814.382
  P     -917.938     260.631     816.772
  C     -917.326     258.660     818.292
  O     -917.230     260.054     818.090
  O     -919.204     259.950     816.409
  O     -918.177     262.185     817.134
  H     -919.048     262.266     817.593
  H     -918.335     258.413     818.657
  H     -916.593     258.354     819.035
  H     -917.126     258.115     817.352
  H     -918.508     267.979     813.739
  H     -918.488     266.353     813.100
  H     -917.913     267.683     812.123

 3  4  5  6  7  8  9  10  11  12  22  25  29  30  31  32 0
 6-311+G(2d,p)
 ****
 33  36  37 0
 6-311+G(2d,p)
 ****
 1  2  13  14  15  16  17  18  19  20  21  23  24  26 0
 3-21G
 ****
 27  28  34  35  38  39  40  41  42  43  44  45  46  47  48 0
 3-21G
 ****


