%nproc=1
%NoSave
%Mem=1900MB
#P OB98/GEN NMR

erre ene a

0 1
  C     -144.197     279.626      90.977
  O     -144.469     279.306      92.325
  H     -144.949     279.147      90.344
  H     -143.212     279.247      90.697
  H     -144.241     280.706      90.810
  P     -143.703     280.108      93.482
  C     -144.714     281.242      95.567
  O     -144.656     280.065      94.774
  C     -145.960     281.237      96.458
  O     -147.119     281.584      95.647
  C     -146.248     279.879      97.117
  O     -146.884     280.143      98.377
  C     -147.237     279.269      96.145
  O     -147.946     278.199      96.730
  C     -148.063     280.500      95.766
  N     -148.831     280.303      94.538
  C     -150.048     279.644      94.665
  O     -150.470     279.209      95.738
  N     -150.756     279.457      93.509
  C     -150.340     279.802      92.256
  O     -151.001     279.580      91.250
  C     -149.024     280.455      92.177
  C     -148.341     280.676      93.302
  O     -143.214     281.468      93.112
  O     -142.501     279.137      93.905
  H     -147.322     277.511      97.044
  H     -141.738     279.663      94.216
  H     -151.646     278.990      93.588
  H     -148.661     280.733      91.195
  H     -147.369     281.155      93.277
  H     -148.771     280.757      96.567
  H     -146.719     278.872      95.267
  H     -145.354     279.271      97.261
  H     -145.852     282.026      97.213
  H     -144.746     282.102      94.890
  H     -143.813     281.309      96.185
  P     -146.093     280.041      99.770
  C     -146.236     281.922     101.525
  O     -146.917     280.841     100.890
  O     -144.649     280.421      99.686
  O     -146.251     278.512     100.217
  H     -145.486     278.249     100.765
  H     -146.882     282.375     102.247
  H     -145.957     282.648     100.791
  H     -145.358     281.553     102.013

 6  7  8  9  10  11  12  13  14  15  16  26  31  32  33  34  35 0
 6-311+G(2d,p)
 ****
 36  37 0
 6-311+G(2d,p)
 ****
 1  2  3  4  5  17  18  19  20  21  22  23  24  25 0
 3-21G
 ****
 27  28  29  30  38  39  40  41  42  43  44  45 0
 3-21G
 ****


