%nproc=1
%NoSave
%Mem=1900MB
#P OB98/GEN NMR

erre ene a

0 1
  C      -44.262       8.265    1590.721
  O      -44.842       8.575    1591.981
  H      -43.604       9.094    1590.428
  H      -45.039       8.151    1589.968
  H      -43.665       7.356    1590.795
  P      -45.724       7.464    1592.716
  C      -47.927       7.614    1591.386
  O      -47.253       7.927    1592.597
  C      -49.418       7.916    1591.528
  O      -50.014       7.031    1592.511
  C      -49.725       9.335    1592.012
  O      -49.567      10.281    1590.963
  C      -51.148       9.169    1592.508
  O      -52.081       9.222    1591.411
  C      -51.106       7.760    1593.134
  N      -50.958       7.780    1594.588
  C      -52.120       8.046    1595.324
  O      -53.200       8.308    1594.795
  N      -51.969       8.071    1596.690
  C      -50.787       7.949    1597.365
  O      -50.694       8.065    1598.577
  C      -49.593       7.695    1596.535
  C      -49.730       7.614    1595.207
  O      -45.283       7.093    1594.093
  O      -45.653       6.206    1591.724
  H      -51.932       8.405    1590.891
  H      -45.048       5.532    1592.092
  H      -52.787       8.273    1597.238
  H      -48.639       7.580    1597.038
  H      -48.862       7.438    1594.583
  H      -52.025       7.211    1592.893
  H      -51.436       9.955    1593.211
  H      -49.077       9.587    1592.855
  H      -49.909       7.722    1590.555
  H      -47.794       6.549    1591.167
  H      -47.491       8.206    1590.575
  P      -48.521      11.485    1591.133
  C      -49.596      12.799    1593.053
  O      -49.346      12.755    1591.662
  O      -47.633      11.737    1589.953
  O      -47.658      11.064    1592.420
  H      -46.720      10.981    1592.154
  H      -50.149      13.684    1593.288
  H      -48.666      12.809    1593.582
  H      -50.162      11.938    1593.341

 6  7  8  9  10  11  12  13  14  15  16  26  31  32  33  34  35 0
 6-311+G(2d,p)
 ****
 36  37 0
 6-311+G(2d,p)
 ****
 1  2  3  4  5  17  18  19  20  21  22  23  24  25 0
 3-21G
 ****
 27  28  29  30  38  39  40  41  42  43  44  45 0
 3-21G
 ****


