%nproc=1
%NoSave
%Mem=1900MB
#P OB98/GEN NMR

erre ene a

0 1
  C       37.689       4.907     -88.662
  O       38.669       4.601     -87.688
  P       38.903       3.083     -87.236
  C       36.722       3.092     -85.817
  O       38.116       2.881     -85.855
  C       36.190       3.029     -84.378
  O       34.792       3.406     -84.405
  C       36.237       1.646     -83.739
  O       36.124       1.797     -82.321
  C       34.979       1.008     -84.283
  O       34.553      -0.103     -83.500
  C       33.992       2.202     -84.333
  N       33.094       2.114     -85.499
  C       31.728       2.198     -85.249
  O       31.264       2.413     -84.129
  N       30.907       1.940     -86.313
  C       31.325       1.568     -87.557
  O       30.596       1.050     -88.395
  C       32.763       1.732     -87.820
  C       33.575       1.969     -86.787
  O       40.443       3.076     -86.803
  O       38.616       2.064     -88.284
  H       33.712      -0.427     -83.899
  H       40.998       2.754     -87.537
  H       29.921       1.858     -86.097
  H       33.115       1.593     -88.832
  H       34.649       2.043     -86.942
  H       33.371       2.245     -83.431
  H       35.175       0.640     -85.298
  H       37.131       1.065     -83.987
  H       36.727       3.760     -83.761
  H       36.226       2.345     -86.444
  H       36.474       4.069     -86.245
  P       37.302       1.208     -81.407
  C       35.826      -0.865     -81.061
  O       36.624       0.124     -80.439
  O       38.172       2.216     -80.733
  O       38.132       0.297     -82.432
  H       39.024       0.129     -82.074
  H       35.858      -1.774     -80.456
  H       36.184      -1.094     -82.068
  H       34.793      -0.510     -81.115
  H       37.676       5.963     -88.835
  H       36.728       4.591     -88.313
  H       37.922       4.399     -89.574

 3  4  5  6  7  8  9  10  11  12  13  23  28  29  30  31  32 0
 6-311+G(2d,p)
 ****
 33  34 0
 6-311+G(2d,p)
 ****
 1  2  14  15  16  17  18  19  20  21  22  24  25  26  27 0
 3-21G
 ****
 35  36  37  38  39  40  41  42  43  44  45 0
 3-21G
 ****


