%nproc=1
%NoSave
%Mem=1900MB
#P OB98/GEN NMR

erre ene a

0 1
  C     -629.265    1233.828    -219.240
  O     -629.966    1234.034    -217.999
  P     -629.391    1233.490    -216.609
  C     -631.169    1231.674    -216.943
  O     -629.821    1231.947    -216.552
  C     -631.883    1230.866    -215.847
  O     -630.993    1229.808    -215.399
  C     -632.228    1231.634    -214.586
  O     -633.482    1232.332    -214.641
  C     -632.373    1230.495    -213.580
  O     -633.636    1229.841    -213.737
  C     -631.239    1229.564    -213.991
  N     -629.217    1230.358    -209.347
  C     -630.491    1230.122    -209.762
  N     -630.954    1229.981    -211.024
  C     -629.929    1229.953    -211.888
  C     -628.593    1230.156    -211.641
  C     -628.221    1230.333    -210.284
  N     -626.927    1230.552    -209.866
  N     -627.850    1230.117    -212.801
  C     -628.732    1229.882    -213.741
  N     -630.002    1229.749    -213.239
  O     -629.759    1234.321    -215.422
  O     -627.812    1233.409    -216.851
  H     -633.628    1229.044    -213.181
  H     -627.335    1233.352    -215.970
  H     -631.250    1230.124    -208.965
  H     -628.498    1229.790    -214.809
  H     -631.509    1228.479    -213.899
  H     -632.322    1230.822    -212.545
  H     -631.422    1232.282    -214.266
  H     -632.754    1230.393    -216.291
  H     -631.127    1231.052    -217.850
  H     -626.772    1230.556    -208.864
  H     -626.184    1230.375    -210.524
  H     -631.713    1232.587    -217.148
  P     -633.430    1233.935    -214.388
  C     -633.930    1234.537    -211.907
  O     -632.987    1234.102    -212.849
  O     -634.658    1234.643    -214.812
  O     -632.120    1234.380    -215.214
  H     -631.284    1234.068    -214.838
  H     -633.470    1234.439    -210.888
  H     -634.821    1233.924    -211.920
  H     -634.193    1235.577    -212.061
  H     -629.821    1234.269    -220.041
  H     -629.155    1232.779    -219.418
  H     -628.298    1234.283    -219.183

 3  4  5  6  7  8  9  10  11  12  22  25  29  30  31  32 0
 6-311+G(2d,p)
 ****
 33  36  37 0
 6-311+G(2d,p)
 ****
 1  2  13  14  15  16  17  18  19  20  21  23  24  26 0
 3-21G
 ****
 27  28  34  35  38  39  40  41  42  43  44  45  46  47  48 0
 3-21G
 ****


