%nproc=1
%NoSave
%Mem=1900MB
#P OB98/GEN NMR

erre ene a

0 1
  C     -227.528    -462.052     639.195
  O     -226.554    -462.040     638.174
  H     -227.699    -461.026     639.524
  H     -227.175    -462.638     640.050
  H     -228.468    -462.463     638.820
  P     -226.064    -463.436     637.553
  C     -223.595    -463.611     638.289
  O     -224.500    -463.281     637.238
  C     -222.256    -462.897     638.079
  O     -221.917    -462.996     636.671
  C     -222.317    -461.410     638.461
  O     -221.292    -461.026     639.370
  C     -222.373    -460.706     637.108
  O     -221.872    -459.389     637.116
  C     -221.625    -461.674     636.182
  N     -222.004    -461.549     634.775
  C     -221.039    -461.073     633.895
  O     -219.894    -460.758     634.199
  N     -221.434    -460.965     632.585
  C     -222.671    -461.263     632.088
  O     -222.965    -461.148     630.905
  C     -223.655    -461.741     633.075
  C     -223.284    -461.856     634.351
  O     -226.883    -463.957     636.421
  O     -226.082    -464.441     638.801
  H     -222.397    -458.883     637.776
  H     -226.853    -465.037     638.727
  H     -220.742    -460.634     631.932
  H     -224.650    -461.974     632.719
  H     -223.983    -462.202     635.103
  H     -220.550    -461.514     636.249
  H     -223.422    -460.651     636.792
  H     -223.239    -461.188     639.012
  H     -221.481    -463.429     638.643
  H     -223.454    -464.697     638.278
  H     -224.028    -463.318     639.252
  P     -221.392    -461.116     640.959
  C     -219.300    -459.540     641.210
  O     -219.967    -460.736     641.582
  O     -222.067    -462.325     641.506
  O     -222.298    -459.838     641.353
  H     -222.803    -460.095     642.152
  H     -218.370    -459.473     641.734
  H     -219.912    -458.698     641.459
  H     -219.116    -459.547     640.156

 6  7  8  9  10  11  12  13  14  15  16  26  31  32  33  34  35 0
 6-311+G(2d,p)
 ****
 36  37 0
 6-311+G(2d,p)
 ****
 1  2  3  4  5  17  18  19  20  21  22  23  24  25 0
 3-21G
 ****
 27  28  29  30  38  39  40  41  42  43  44  45 0
 3-21G
 ****


