%nproc=1
%NoSave
%Mem=1900MB
#P OB98/GEN NMR

erre ene a

0 1
  C      433.345     137.586     398.696
  O      433.591     138.334     399.870
  H      434.067     137.885     397.932
  H      432.337     137.784     398.319
  H      433.466     136.517     398.890
  P      432.650     138.078     401.142
  C      430.724     139.775     400.842
  O      431.161     138.431     400.667
  C      429.242     139.805     401.191
  O      428.456     139.289     400.096
  C      428.877     138.967     402.418
  O      429.162     139.684     403.608
  C      427.387     138.769     402.181
  O      426.677     139.974     402.522
  C      427.346     138.540     400.659
  N      425.558     133.835     401.268
  C      425.209     135.007     401.914
  N      424.283     134.901     402.890
  N      425.737     136.172     401.642
  C      426.701     136.113     400.693
  C      427.141     135.010     399.993
  C      426.510     133.738     400.266
  O      426.775     132.675     399.706
  N      428.179     135.326     399.155
  C      428.338     136.628     399.317
  N      427.476     137.150     400.251
  O      433.055     138.758     402.416
  O      432.623     136.487     401.294
  H      426.789     140.103     403.481
  H      433.318     136.177     401.903
  H      425.126     132.966     401.539
  H      429.061     137.236     398.783
  H      426.424     138.925     400.206
  H      426.964     137.959     402.772
  H      424.063     134.014     403.326
  H      429.364     137.989     402.401
  H      424.052     135.738     403.409
  H      428.949     140.854     401.329
  H      430.909     140.305     399.899
  H      431.301     140.261     401.636
  P      430.112     139.058     404.745
  C      428.401     138.120     406.441
  O      429.273     137.835     405.351
  O      430.611     140.033     405.751
  O      431.268     138.314     403.936
  H      432.040     138.895     403.720
  H      427.906     137.222     406.746
  H      427.673     138.842     406.136
  H      428.969     138.510     407.260

 6  7  8  9  10  11  12  13  14  15  26  29  33  34 0
 6-311+G(2d,p)
 ****
 36  38  39  40  41 0
 6-311+G(2d,p)
 ****
 1  2  3  4  5  16  17  18  19  20  21  22  23  24  25 0
 3-21G
 ****
 27  28  30  31  32  35  37  42  43  44  45  46  47 0
 3-21G
 ****
 48  49 0
 3-21G
 ****


