%nproc=1
%NoSave
%Mem=1900MB
#P OB98/GEN NMR

erre ene a

0 1
  C     -439.204    1255.550     827.640
  O     -438.052    1256.341     827.414
  H     -440.016    1256.194     827.975
  H     -438.999    1254.809     828.425
  H     -439.516    1255.038     826.722
  P     -436.771    1255.666     826.740
  C     -435.097    1256.779     828.366
  O     -435.536    1256.650     827.012
  C     -434.585    1258.207     828.627
  O     -433.234    1258.322     828.082
  C     -435.433    1259.310     827.980
  O     -435.319    1260.482     828.810
  C     -434.699    1259.501     826.658
  O     -435.099    1260.663     825.980
  C     -433.248    1259.449     827.177
  N     -432.230    1259.299     826.160
  C     -432.038    1260.346     825.262
  O     -432.687    1261.395     825.280
  N     -431.079    1260.161     824.305
  C     -430.284    1259.060     824.173
  O     -429.412    1258.959     823.323
  C     -430.527    1257.984     825.138
  C     -431.464    1258.148     826.076
  O     -436.928    1255.231     825.318
  O     -436.455    1254.416     827.701
  H     -436.775    1253.593     827.291
  H     -436.072    1260.632     825.830
  H     -430.931    1260.908     823.652
  H     -429.923    1257.086     825.060
  H     -431.656    1257.373     826.801
  H     -433.034    1260.343     827.779
  H     -434.902    1258.665     825.991
  H     -436.488    1259.044     827.866
  H     -434.508    1258.351     829.709
  H     -434.296    1256.055     828.537
  H     -435.936    1256.551     829.031
  P     -435.903    1260.557     830.308
  C     -436.694    1262.605     831.664
  O     -435.674    1262.045     830.854
  O     -435.381    1259.487     831.214
  O     -437.484    1260.431     830.145
  H     -437.874    1260.063     830.974
  H     -436.413    1263.595     831.957
  H     -436.830    1262.000     832.536
  H     -437.609    1262.643     831.110

 6  7  8  9  10  11  12  13  14  15  16  27  31  32  33  34  35 0
 6-311+G(2d,p)
 ****
 36  37 0
 6-311+G(2d,p)
 ****
 1  2  3  4  5  17  18  19  20  21  22  23  24  25 0
 3-21G
 ****
 26  28  29  30  38  39  40  41  42  43  44  45 0
 3-21G
 ****


