%nproc=1
%NoSave
%Mem=1900MB
#P OB98/GEN NMR

erre ene a

0 1
  C     -135.227    -101.631     -18.552
  O     -135.438    -100.222     -18.621
  P     -136.929     -99.683     -18.859
  C     -137.022     -97.507     -17.474
  O     -136.913     -98.080     -18.773
  C     -137.209     -95.984     -17.570
  O     -135.948     -95.380     -17.967
  C     -138.237     -95.521     -18.609
  O     -139.596     -95.394     -18.204
  C     -137.739     -94.110     -18.913
  O     -138.234     -93.194     -17.918
  C     -136.222     -94.227     -18.791
  N     -134.645     -91.729     -22.969
  C     -135.274     -91.310     -21.849
  N     -135.660     -92.040     -20.783
  C     -135.323     -93.329     -20.940
  C     -134.677     -93.902     -22.024
  C     -134.332     -93.042     -23.080
  N     -133.702     -93.470     -24.225
  N     -134.508     -95.257     -21.831
  C     -135.061     -95.500     -20.659
  N     -135.554     -94.367     -20.075
  O     -138.001    -100.357     -18.072
  O     -137.138     -99.934     -20.431
  H     -137.925     -92.307     -18.182
  H     -138.061    -100.212     -20.587
  H     -135.500     -90.248     -21.804
  H     -135.125     -96.475     -20.198
  H     -135.775     -93.359     -18.294
  H     -138.093     -93.742     -19.881
  H     -138.179     -96.137     -19.514
  H     -137.477     -95.592     -16.580
  H     -136.122     -97.732     -16.899
  H     -133.531     -92.795     -24.954
  H     -133.515     -94.454     -24.349
  H     -137.852     -98.000     -16.967
  P     -140.739     -96.340     -18.808
  C     -142.142     -95.684     -16.699
  O     -142.099     -95.880     -18.095
  O     -140.460     -97.801     -18.726
  O     -140.905     -95.779     -20.296
  H     -141.288     -94.888     -20.349
  H     -143.075     -95.173     -16.445
  H     -141.303     -95.070     -16.366
  H     -142.120     -96.652     -16.190
  H     -134.188    -101.829     -18.391
  H     -135.538    -102.084     -19.470
  H     -135.797    -102.038     -17.743

 3  4  5  6  7  8  9  10  11  12  22  25  29  30  31  32 0
 6-311+G(2d,p)
 ****
 33  36  37 0
 6-311+G(2d,p)
 ****
 1  2  13  14  15  16  17  18  19  20  21  23  24  26 0
 3-21G
 ****
 27  28  34  35  38  39  40  41  42  43  44  45  46  47  48 0
 3-21G
 ****


