%nproc=1
%NoSave
%Mem=1900MB
#P OB98/GEN NMR

erre ene a

0 1
  C     -500.283     283.436      30.101
  O     -501.186     282.768      29.245
  H     -500.855     284.087      30.769
  H     -499.595     284.053      29.519
  H     -499.721     282.722      30.707
  P     -500.624     281.624      28.273
  C     -500.833     279.944      30.217
  O     -501.138     280.222      28.855
  C     -501.006     278.454      30.495
  O     -502.397     278.083      30.356
  C     -500.249     277.556      29.525
  O     -498.863     277.534      29.809
  C     -500.971     276.236      29.735
  O     -500.478     275.554      30.894
  C     -502.430     276.697      29.952
  N     -503.248     276.515      28.753
  C     -503.940     275.313      28.659
  O     -503.900     274.435      29.518
  N     -504.643     275.121      27.499
  C     -504.603     275.932      26.402
  O     -505.043     275.603      25.305
  C     -503.908     277.215      26.582
  C     -503.261     277.439      27.728
  O     -499.163     281.690      27.975
  O     -501.499     281.799      26.942
  H     -500.969     282.265      26.270
  H     -499.529     275.384      30.721
  H     -505.115     274.232      27.405
  H     -503.912     277.918      25.759
  H     -502.710     278.363      27.872
  H     -502.889     276.137      30.777
  H     -500.849     275.570      28.879
  H     -500.419     277.895      28.497
  H     -500.702     278.257      31.530
  H     -501.517     280.516      30.854
  H     -499.806     280.262      30.423
  P     -497.804     277.976      28.693
  C     -497.697     280.544      28.658
  O     -497.119     279.348      29.165
  O     -498.318     277.985      27.294
  O     -496.612     276.917      28.849
  H     -496.400     276.552      27.970
  H     -497.161     281.388      29.038
  H     -498.720     280.604      28.965
  H     -497.645     280.540      27.589

 6  7  8  9  10  11  12  13  14  15  16  27  31  32  33  34  35 0
 6-311+G(2d,p)
 ****
 36  37 0
 6-311+G(2d,p)
 ****
 1  2  3  4  5  17  18  19  20  21  22  23  24  25 0
 3-21G
 ****
 26  28  29  30  38  39  40  41  42  43  44  45 0
 3-21G
 ****


