%nproc=1
%NoSave
%Mem=1900MB
#P OB98/GEN NMR

erre ene a

0 1
  C      -22.216     184.635    -104.429
  O      -21.809     183.485    -103.716
  H      -21.757     185.515    -103.970
  H      -23.304     184.743    -104.387
  H      -21.892     184.568    -105.471
  P      -22.466     182.092    -104.177
  C      -20.203     180.946    -104.790
  O      -21.304     181.020    -103.896
  C      -19.016     180.289    -104.094
  O      -18.447     181.179    -103.109
  C      -19.368     179.015    -103.334
  O      -19.505     177.885    -104.181
  C      -18.158     178.897    -102.425
  O      -17.033     178.412    -103.180
  C      -17.953     180.371    -102.007
  N      -18.646     180.719    -100.765
  C      -18.026     180.330     -99.572
  O      -16.959     179.719     -99.590
  N      -18.648     180.614     -98.380
  C      -19.784     181.241     -98.377
  N      -20.362     181.484     -97.170
  C      -20.463     181.683     -99.609
  C      -19.847     181.391    -100.752
  O      -22.472     182.188    -105.775
  O      -23.790     181.761    -103.575
  H      -16.715     179.156    -103.723
  H      -22.745     181.321    -106.161
  H      -21.414     182.192     -99.557
  H      -20.288     181.683    -101.698
  H      -16.888     180.600    -101.889
  H      -18.312     178.204    -101.595
  H      -20.261     179.149    -102.713
  H      -18.243     180.101    -104.849
  H      -19.904     181.115     -96.347
  H      -19.944     181.963    -105.102
  H      -21.320     181.800     -97.077
  H      -20.476     180.360    -105.674
  P      -20.794     176.950    -103.972
  C      -21.657     176.980    -106.422
  O      -21.074     176.220    -105.372
  O      -21.991     178.005    -103.863
  O      -20.732     176.047    -102.780
  H      -22.646     177.727    -103.195
  H      -21.781     176.360    -107.285
  H      -21.018     177.803    -106.664
  H      -22.611     177.349    -106.108

 6  7  8  9  10  11  12  13  14  15  16  26  30  31  32  33  35 0
 6-311+G(2d,p)
 ****
 37  38 0
 6-311+G(2d,p)
 ****
 1  2  3  4  5  17  18  19  20  21  22  23  24  25 0
 3-21G
 ****
 27  28  29  34  36  39  40  41  42  43  44  45  46 0
 3-21G
 ****


