%nproc=1
%NoSave
%Mem=1900MB
#P OB98/GEN NMR

erre ene a

0 1
  C      768.823     239.537     299.120
  O      768.492     239.456     297.747
  H      768.746     238.540     299.565
  H      768.121     240.205     299.632
  H      769.846     239.906     299.245
  P      768.763     240.769     296.871
  C      767.967     243.267     296.956
  O      767.826     241.944     297.451
  C      766.763     244.109     297.386
  O      765.545     243.597     296.818
  C      766.493     244.104     298.888
  O      767.437     244.853     299.620
  C      765.089     244.695     298.930
  O      765.119     246.121     298.900
  C      764.467     244.140     297.626
  N      763.439     243.140     297.894
  C      762.127     243.659     298.044
  O      761.940     244.866     297.921
  N      761.119     242.794     298.363
  C      761.393     241.531     298.549
  N      760.341     240.730     298.901
  C      762.740     240.956     298.402
  C      763.707     241.813     298.072
  O      768.060     240.400     295.479
  O      770.201     241.152     296.747
  H      765.610     246.368     298.086
  H      767.164     240.061     295.570
  H      762.895     239.901     298.555
  H      764.734     241.469     297.958
  H      764.012     244.950     297.043
  H      764.558     244.404     299.831
  H      766.441     243.068     299.249
  H      766.915     245.141     297.025
  H      759.434     241.187     299.040
  H      768.058     243.266     295.870
  H      760.433     239.753     299.152
  H      768.895     243.680     297.365
  P      768.034     244.333     301.000
  C      767.185     244.234     303.442
  O      766.828     244.351     302.071
  O      769.266     245.021     301.482
  O      768.221     242.756     300.736
  H      767.408     242.283     300.505
  H      766.301     244.259     304.044
  H      767.825     245.047     303.714
  H      767.697     243.308     303.599

 6  7  8  9  10  11  12  13  14  15  16  26  30  31  32  33  35 0
 6-311+G(2d,p)
 ****
 37  38 0
 6-311+G(2d,p)
 ****
 1  2  3  4  5  17  18  19  20  21  22  23  24  25 0
 3-21G
 ****
 27  28  29  34  36  39  40  41  42  43  44  45  46 0
 3-21G
 ****


