%nproc=1
%NoSave
%Mem=1900MB
#P OB98/GEN NMR

erre ene a

0 1
  C       99.749    -164.930      30.970
  O      100.531    -165.953      31.559
  H      100.318    -163.997      30.961
  H       99.522    -165.214      29.939
  H       98.812    -164.793      31.516
  P      100.731    -165.899      33.150
  C      100.883    -167.989      34.688
  O      101.413    -167.296      33.567
  C      101.415    -169.421      34.736
  O      100.828    -170.166      33.627
  C      102.946    -169.532      34.617
  O      103.390    -170.579      35.488
  C      103.149    -169.969      33.172
  O      104.373    -170.671      32.984
  C      101.909    -170.822      32.939
  N       99.771    -173.828      29.437
  C       99.678    -173.807      30.782
  N      100.243    -172.933      31.643
  C      100.907    -171.968      30.978
  C      101.077    -171.853      29.604
  C      100.488    -172.860      28.819
  N      100.632    -172.929      27.451
  N      101.870    -170.761      29.313
  C      102.189    -170.241      30.482
  N      101.630    -170.940      31.516
  O       99.226    -166.042      33.690
  O      101.401    -164.675      33.674
  H      104.507    -170.818      32.027
  H       98.816    -165.161      33.745
  H       99.087    -174.598      31.231
  H      102.839    -169.390      30.637
  H      102.006    -171.837      33.341
  H      103.156    -169.087      32.522
  H      103.473    -168.605      34.854
  H      101.061    -169.894      35.659
  H       99.792    -168.015      34.604
  H      100.259    -173.742      26.979
  H      101.251    -172.281      26.990
  H      101.150    -167.457      35.605
  P      103.673    -170.193      37.017
  C      104.988    -171.241      39.013
  O      104.763    -171.212      37.608
  O      102.325    -170.626      37.762
  O      103.987    -168.746      37.228
  H      102.149    -170.027      38.511
  H      105.739    -171.969      39.239
  H      104.079    -171.499      39.515
  H      105.315    -170.277      39.342

 6  7  8  9  10  11  12  13  14  15  25  28  32  33  34  35 0
 6-311+G(2d,p)
 ****
 36  39  40 0
 6-311+G(2d,p)
 ****
 1  2  3  4  5  16  17  18  19  20  21  22  23  24 0
 3-21G
 ****
 26  27  29  30  31  37  38  41  42  43  44  45  46  47 0
 3-21G
 ****
 48 0
 3-21G
 ****


