%nproc=1
%NoSave
%Mem=1900MB
#P OB98/GEN NMR

erre ene a

0 1
  C     -177.662    -367.894     733.787
  O     -178.250    -366.682     734.211
  P     -177.717    -365.932     735.525
  C     -177.439    -363.395     735.150
  O     -176.832    -364.687     735.023
  C     -176.520    -362.333     734.563
  O     -176.299    -362.552     733.142
  C     -177.090    -360.918     734.638
  O     -177.252    -360.346     735.918
  C     -176.185    -360.188     733.656
  O     -174.940    -359.824     734.272
  C     -175.966    -361.261     732.565
  N     -176.737    -360.985     731.355
  C     -176.182    -360.063     730.476
  O     -175.111    -359.491     730.679
  N     -176.923    -359.784     729.358
  C     -178.151    -360.284     729.062
  O     -178.782    -359.953     728.078
  C     -178.701    -361.244     730.040
  C     -177.982    -361.547     731.125
  O     -177.037    -366.814     736.526
  O     -179.041    -365.206     736.090
  H     -174.371    -359.431     733.581
  H     -179.440    -364.573     735.481
  H     -176.548    -359.105     728.716
  H     -179.675    -361.673     729.826
  H     -178.367    -362.262     731.864
  H     -174.902    -361.318     732.290
  H     -176.642    -359.261     733.296
  H     -178.091    -360.928     734.189
  H     -175.545    -362.399     735.055
  H     -177.597    -363.190     736.217
  H     -178.424    -363.401     734.662
  P     -178.647    -360.289     736.692
  C     -177.373    -360.890     738.872
  O     -178.505    -361.114     738.060
  O     -179.880    -360.517     735.868
  O     -178.652    -358.768     737.224
  H     -179.577    -358.453     737.271
  H     -177.423    -361.563     739.739
  H     -177.363    -359.858     739.243
  H     -176.452    -361.093     738.320
  H     -178.151    -368.236     732.899
  H     -177.766    -368.629     734.557
  H     -176.624    -367.735     733.583

 3  4  5  6  7  8  9  10  11  12  13  23  28  29  30  31  32 0
 6-311+G(2d,p)
 ****
 33  34 0
 6-311+G(2d,p)
 ****
 1  2  14  15  16  17  18  19  20  21  22  24  25  26  27 0
 3-21G
 ****
 35  36  37  38  39  40  41  42  43  44  45 0
 3-21G
 ****


