%nproc=1
%NoSave
%Mem=1900MB
#P OB98/GEN NMR

erre ene a

0 1
  C      125.907    -695.980     561.493
  O      125.310    -695.630     562.717
  H      126.742    -696.660     561.684
  H      126.292    -695.090     560.991
  H      125.190    -696.490     560.843
  P      123.958    -694.761     562.663
  C      122.613    -696.856     563.421
  O      122.746    -695.812     562.460
  C      121.528    -697.835     562.971
  O      121.837    -698.318     561.633
  C      121.395    -699.065     563.891
  O      120.009    -699.398     564.012
  C      122.121    -700.164     563.128
  O      121.674    -701.473     563.482
  C      121.853    -699.753     561.674
  N      122.864    -700.307     560.776
  C      122.798    -701.689     560.518
  O      121.926    -702.372     561.045
  N      123.746    -702.261     559.708
  C      124.737    -701.537     559.271
  N      125.674    -702.174     558.514
  C      124.886    -700.100     559.578
  C      123.926    -699.549     560.318
  O      124.038    -694.032     561.244
  O      123.768    -693.803     563.791
  H      121.690    -701.542     564.470
  H      123.607    -693.161     561.266
  H      125.745    -699.546     559.216
  H      123.950    -698.504     560.591
  H      120.869    -700.103     561.354
  H      123.199    -700.111     563.353
  H      121.816    -698.899     564.892
  H      120.571    -697.296     562.909
  H      125.548    -703.167     558.335
  H      122.316    -696.423     564.388
  H      126.509    -701.721     558.152
  H      123.576    -697.371     563.542
  P      119.161    -698.621     565.130
  C      117.697    -697.381     563.369
  O      118.583    -697.278     564.474
  O      120.289    -698.109     566.141
  O      118.144    -699.485     565.821
  H      120.254    -698.602     566.970
  H      117.406    -696.401     563.053
  H      116.829    -697.935     563.659
  H      118.189    -697.885     562.563

 6  7  8  9  10  11  12  13  14  15  16  26  30  31  32  33  35 0
 6-311+G(2d,p)
 ****
 37  38 0
 6-311+G(2d,p)
 ****
 1  2  3  4  5  17  18  19  20  21  22  23  24  25 0
 3-21G
 ****
 27  28  29  34  36  39  40  41  42  43  44  45  46 0
 3-21G
 ****


