%nproc=1
%NoSave
%Mem=1900MB
#P OB98/GEN NMR

erre ene a

0 1
  C      181.296    -827.224     322.893
  O      182.367    -827.378     323.804
  H      180.873    -828.212     322.685
  H      181.649    -826.786     321.956
  H      180.518    -826.596     323.329
  P      183.150    -826.039     324.214
  C      181.197    -824.876     325.453
  O      182.438    -825.559     325.571
  C      180.773    -824.292     326.795
  O      180.377    -825.338     327.692
  C      181.869    -823.499     327.500
  O      181.935    -822.179     327.015
  C      181.360    -823.542     328.946
  O      180.352    -822.525     329.119
  C      180.724    -824.941     329.044
  N      182.120    -827.269     333.401
  C      181.384    -826.173     333.167
  N      181.099    -825.569     331.990
  C      181.654    -826.249     330.972
  C      182.431    -827.390     331.044
  C      182.655    -827.923     332.335
  N      183.413    -829.056     332.549
  N      182.825    -827.806     329.791
  C      182.245    -826.954     328.970
  N      181.556    -825.972     329.630
  O      183.295    -825.013     323.141
  O      184.534    -826.649     324.752
  H      179.493    -822.941     328.888
  H      184.366    -827.456     325.272
  H      180.974    -825.695     334.059
  H      182.283    -827.018     327.883
  H      179.794    -824.915     329.626
  H      182.151    -823.344     329.673
  H      182.837    -824.025     327.454
  H      179.895    -823.650     326.623
  H      180.419    -825.561     325.088
  H      183.674    -829.243     333.503
  H      183.906    -829.451     331.774
  H      181.325    -824.081     324.708
  P      183.348    -821.472     326.708
  C      183.571    -822.589     324.394
  O      183.408    -821.363     325.105
  O      184.515    -822.119     327.364
  O      183.133    -819.963     327.164
  H      183.998    -819.514     327.260
  H      183.597    -822.391     323.343
  H      182.751    -823.241     324.614
  H      184.487    -823.055     324.692

 6  7  8  9  10  11  12  13  14  15  25  28  32  33  34  35 0
 6-311+G(2d,p)
 ****
 36  39  40 0
 6-311+G(2d,p)
 ****
 1  2  3  4  5  16  17  18  19  20  21  22  23  24 0
 3-21G
 ****
 26  27  29  30  31  37  38  41  42  43  44  45  46  47 0
 3-21G
 ****
 48 0
 3-21G
 ****


