%nproc=1
%NoSave
%Mem=1900MB
#P OB98/GEN NMR

erre ene a

0 1
  C      432.162    -212.565    -166.586
  O      433.357    -212.725    -167.327
  P      434.549    -211.669    -167.167
  C      435.554    -213.398    -165.503
  O      435.326    -212.042    -165.814
  C      436.447    -213.540    -164.263
  O      436.454    -214.935    -163.875
  C      437.910    -213.162    -164.482
  O      438.518    -212.935    -163.207
  C      438.470    -214.426    -165.090
  O      439.889    -214.501    -164.974
  C      437.686    -215.538    -164.347
  N      437.392    -216.679    -165.225
  C      437.727    -217.940    -164.748
  O      438.182    -218.133    -163.620
  N      437.617    -218.970    -165.652
  C      437.244    -218.840    -166.958
  O      437.437    -219.694    -167.811
  C      436.674    -217.535    -167.323
  C      436.798    -216.521    -166.462
  O      433.776    -210.314    -166.805
  O      435.414    -211.507    -168.370
  H      440.103    -214.425    -164.016
  H      433.647    -209.775    -167.605
  H      438.000    -219.859    -165.352
  H      436.229    -217.432    -168.304
  H      436.431    -215.532    -166.732
  H      438.246    -215.909    -163.478
  H      438.224    -214.450    -166.160
  H      438.057    -212.295    -165.130
  H      436.018    -212.957    -163.434
  H      436.008    -213.896    -166.363
  H      434.601    -213.910    -165.315
  P      439.792    -211.961    -163.146
  C      438.058    -210.148    -162.590
  O      439.229    -210.470    -163.315
  O      440.932    -212.326    -164.039
  O      440.208    -212.011    -161.598
  H      441.130    -211.705    -161.497
  H      438.070    -209.082    -162.360
  H      437.996    -210.717    -161.653
  H      437.182    -210.373    -163.205
  H      431.487    -213.360    -166.822
  H      431.710    -211.628    -166.836
  H      432.386    -212.586    -165.540

 3  4  5  6  7  8  9  10  11  12  13  23  28  29  30  31  32 0
 6-311+G(2d,p)
 ****
 33  34 0
 6-311+G(2d,p)
 ****
 1  2  14  15  16  17  18  19  20  21  22  24  25  26  27 0
 3-21G
 ****
 35  36  37  38  39  40  41  42  43  44  45 0
 3-21G
 ****


