%nproc=1
%NoSave
%Mem=1900MB
#P OB98/GEN NMR

erre ene a

0 1
  C     -120.604     148.716     653.894
  O     -119.448     148.757     653.098
  H     -120.325     148.889     654.939
  H     -121.074     147.729     653.823
  H     -121.319     149.492     653.591
  P     -119.593     148.814     651.500
  C     -120.181     147.074     649.683
  O     -119.728     147.288     651.018
  C     -120.075     145.588     649.323
  O     -118.659     145.253     649.192
  C     -120.677     144.654     650.392
  O     -121.240     143.514     649.733
  C     -119.442     144.242     651.172
  O     -119.648     143.065     651.912
  C     -118.414     144.119     650.049
  N     -117.056     144.095     650.576
  C     -116.434     142.851     650.681
  O     -116.985     141.792     650.365
  N     -115.182     142.844     651.230
  C     -114.546     143.919     651.772
  O     -113.451     143.846     652.317
  C     -115.265     145.202     651.678
  C     -116.462     145.237     651.091
  O     -118.558     149.608     650.773
  O     -121.074     149.372     651.262
  H     -118.825     142.797     652.360
  H     -121.153     149.753     650.366
  H     -114.718     141.949     651.299
  H     -114.794     146.077     652.116
  H     -117.027     146.157     651.020
  H     -118.590     143.215     649.452
  H     -119.168     145.035     651.875
  H     -121.440     145.137     651.009
  H     -120.535     145.419     648.346
  H     -119.557     147.669     649.009
  H     -121.222     147.405     649.593
  P     -122.816     143.403     649.430
  C     -124.969     142.427     650.433
  O     -123.576     142.625     650.625
  O     -123.144     142.866     648.064
  O     -123.349     144.905     649.563
  H     -123.941     145.109     648.805
  H     -125.375     141.906     651.275
  H     -125.128     141.850     649.546
  H     -125.454     143.376     650.333

 6  7  8  9  10  11  12  13  14  15  16  26  31  32  33  34  35 0
 6-311+G(2d,p)
 ****
 36  37 0
 6-311+G(2d,p)
 ****
 1  2  3  4  5  17  18  19  20  21  22  23  24  25 0
 3-21G
 ****
 27  28  29  30  38  39  40  41  42  43  44  45 0
 3-21G
 ****


