%nproc=1
%NoSave
%Mem=1900MB
#P OB98/GEN NMR

erre ene a

0 1
  C      408.532    -144.516     -31.111
  O      408.200    -143.176     -30.721
  P      409.194    -142.414     -29.722
  C      411.027    -141.750     -31.442
  O      409.999    -141.317     -30.565
  C      412.006    -140.605     -31.724
  O      413.260    -141.093     -32.252
  C      411.493    -139.593     -32.739
  O      410.632    -138.635     -32.140
  C      412.791    -138.927     -33.172
  O      413.185    -137.946     -32.189
  C      413.772    -140.103     -33.179
  N      417.109    -141.485     -36.723
  C      417.314    -140.908     -35.484
  N      418.599    -140.670     -35.134
  N      416.347    -140.590     -34.661
  C      415.121    -140.904     -35.137
  C      414.788    -141.477     -36.344
  C      415.866    -141.806     -37.250
  O      415.744    -142.306     -38.365
  N      413.433    -141.630     -36.468
  C      412.942    -141.174     -35.331
  N      413.925    -140.702     -34.495
  O      410.317    -143.521     -29.425
  O      408.552    -141.929     -28.466
  H      413.151    -138.393     -31.321
  H      410.707    -143.365     -28.545
  H      417.893    -141.703     -37.317
  H      411.893    -141.161     -35.070
  H      414.773    -139.815     -32.837
  H      412.689    -138.399     -34.123
  H      419.391    -140.933     -35.695
  H      411.023    -140.096     -33.595
  H      418.767    -140.274     -34.217
  H      412.209    -140.089     -30.774
  H      410.599    -142.108     -32.383
  H      411.533    -142.611     -30.999
  P      409.278    -138.256     -32.913
  C      407.669    -140.215     -32.345
  O      408.086    -138.895     -32.056
  O      409.351    -139.172     -34.226
  O      409.139    -136.815     -33.252
  H      408.909    -138.723     -34.968
  H      406.970    -140.538     -31.571
  H      408.523    -140.896     -32.361
  H      407.159    -140.243     -33.315
  H      407.781    -144.891     -31.775
  H      408.583    -145.138     -30.242
  H      409.480    -144.519     -31.607

 3  4  5  6  7  8  9  10  11  12  23  26  30  31 0
 6-311+G(2d,p)
 ****
 33  35  36  37  38 0
 6-311+G(2d,p)
 ****
 1  2  13  14  15  16  17  18  19  20  21  22  24  25 0
 3-21G
 ****
 27  28  29  32  34  39  40  41  42  43  44  45  46  47  48  49 0
 3-21G
 ****


