%nproc=1
%NoSave
%Mem=1900MB
#P OB98/GEN NMR

erre ene a

0 1
  C      -21.822    -684.488    -162.274
  O      -21.128    -685.017    -163.387
  P      -19.574    -685.380    -163.260
  C      -20.109    -687.729    -162.372
  O      -19.427    -686.507    -162.127
  C      -19.110    -688.880    -162.492
  O      -18.476    -689.133    -161.218
  C      -19.735    -690.206    -162.906
  O      -20.024    -690.214    -164.292
  C      -18.655    -691.189    -162.470
  O      -17.613    -691.264    -163.457
  C      -18.132    -690.534    -161.184
  N      -17.323    -694.075    -157.602
  C      -16.684    -693.805    -158.762
  N      -16.987    -692.870    -159.685
  C      -18.087    -692.185    -159.321
  C      -18.860    -692.371    -158.184
  C      -18.424    -693.353    -157.279
  N      -19.028    -693.599    -156.069
  N      -19.928    -691.493    -158.182
  C      -19.803    -690.800    -159.298
  N      -18.671    -691.140    -159.980
  O      -18.653    -684.213    -163.114
  O      -19.257    -686.186    -164.605
  H      -17.034    -692.013    -163.212
  H      -18.573    -685.711    -165.117
  H      -15.813    -694.422    -158.970
  H      -20.492    -690.039    -159.643
  H      -17.038    -690.587    -161.116
  H      -19.043    -692.203    -162.330
  H      -20.644    -690.392    -162.324
  H      -18.330    -688.579    -163.204
  H      -20.673    -687.632    -163.303
  H      -18.556    -694.220    -155.437
  H      -19.647    -692.882    -155.684
  H      -20.812    -687.924    -161.552
  P      -21.533    -690.046    -164.788
  C      -21.085    -687.770    -165.885
  O      -21.819    -688.471    -164.898
  O      -22.559    -690.828    -164.034
  O      -21.477    -690.502    -166.325
  H      -22.332    -690.909    -166.571
  H      -20.066    -687.592    -165.525
  H      -21.569    -686.807    -166.064
  H      -21.052    -688.332    -166.818
  H      -22.842    -684.308    -162.542
  H      -21.365    -683.569    -161.973
  H      -21.784    -685.187    -161.465

 3  4  5  6  7  8  9  10  11  12  22  25  29  30  31  32 0
 6-311+G(2d,p)
 ****
 33  36  37 0
 6-311+G(2d,p)
 ****
 1  2  13  14  15  16  17  18  19  20  21  23  24  26 0
 3-21G
 ****
 27  28  34  35  38  39  40  41  42  43  44  45  46  47  48 0
 3-21G
 ****


