%nproc=1
%NoSave
%Mem=1900MB
#P OB98/GEN NMR

erre ene a

0 1
  C      644.144    -216.361     218.488
  O      645.518    -216.051     218.383
  H      643.660    -216.129     217.543
  H      643.692    -215.754     219.275
  H      644.002    -217.427     218.706
  P      646.485    -216.620     219.536
  C      646.019    -214.459     220.910
  O      646.997    -215.347     220.370
  C      646.565    -213.747     222.141
  O      646.879    -214.705     223.181
  C      647.849    -212.955     221.897
  O      647.568    -211.666     221.359
  C      648.402    -212.859     223.308
  O      647.672    -211.845     224.038
  C      648.076    -214.245     223.871
  N      652.856    -215.517     225.030
  C      652.138    -214.379     225.352
  N      652.783    -213.441     226.086
  N      650.896    -214.177     224.989
  C      650.385    -215.190     224.243
  C      651.002    -216.352     223.858
  C      652.362    -216.577     224.280
  O      653.044    -217.567     224.031
  N      650.162    -217.139     223.108
  C      649.049    -216.434     223.023
  N      649.129    -215.237     223.698
  O      647.779    -217.090     218.716
  O      645.917    -217.741     220.336
  H      648.118    -211.746     224.903
  H      647.764    -218.059     218.615
  H      653.812    -215.620     225.327
  H      648.159    -216.746     222.492
  H      647.847    -214.221     224.943
  H      649.456    -212.567     223.334
  H      653.745    -213.522     226.375
  H      648.558    -213.511     221.260
  H      652.274    -212.604     226.335
  H      645.774    -213.090     222.534
  H      645.131    -215.043     221.190
  H      645.745    -213.725     220.147
  P      647.971    -211.376     219.832
  C      649.962    -209.740     220.136
  O      648.596    -209.902     219.789
  O      646.551    -211.211     219.122
  O      648.790    -212.434     219.175
  H      646.387    -211.951     218.505
  H      650.229    -208.707     220.060
  H      650.570    -210.316     219.470
  H      650.117    -210.075     221.140

 6  7  8  9  10  11  12  13  14  15  26  29  33  34 0
 6-311+G(2d,p)
 ****
 36  38  39  40  41 0
 6-311+G(2d,p)
 ****
 1  2  3  4  5  16  17  18  19  20  21  22  23  24  25 0
 3-21G
 ****
 27  28  30  31  32  35  37  42  43  44  45  46  47 0
 3-21G
 ****
 48  49 0
 3-21G
 ****


