%nproc=1
%NoSave
%Mem=1900MB
#P OB98/GEN NMR

erre ene a

0 1
  C     -218.594     153.102     120.256
  O     -218.251     153.898     119.138
  P     -216.744     153.964     118.602
  C     -215.064     155.897     118.501
  O     -216.021     155.215     119.297
  C     -214.646     157.219     119.146
  O     -215.812     158.075     119.293
  C     -213.997     157.069     120.529
  O     -212.949     158.039     120.612
  C     -215.128     157.420     121.476
  O     -214.654     157.828     122.751
  C     -215.854     158.500     120.672
  N     -217.219     158.708     121.120
  C     -217.627     160.033     121.321
  O     -216.805     160.946     121.243
  N     -218.946     160.278     121.616
  C     -219.734     159.279     121.880
  N     -221.049     159.562     122.101
  C     -219.273     157.878     121.922
  C     -218.028     157.661     121.493
  O     -216.600     153.913     117.117
  O     -216.025     152.705     119.287
  H     -215.595     152.165     118.595
  H     -215.386     158.250     123.242
  H     -219.935     157.100     122.266
  H     -217.610     156.661     121.460
  H     -215.313     159.454     120.730
  H     -215.774     156.549     121.619
  H     -213.580     156.069     120.692
  H     -213.959     157.729     118.460
  H     -221.337     160.532     122.026
  H     -215.518     156.104     117.528
  H     -221.778     158.859     121.997
  H     -214.193     155.255     118.335
  P     -211.604     157.644     121.403
  C     -210.973     157.072     123.857
  O     -211.969     157.512     122.960
  O     -210.792     159.030     121.368
  O     -210.775     156.554     120.805
  H     -209.838     158.841     121.452
  H     -211.415     156.971     124.850
  H     -210.158     157.800     123.906
  H     -210.581     156.099     123.548
  H     -219.642     153.195     120.452
  H     -218.041     153.431     121.111
  H     -218.359     152.079     120.051

 3  4  5  6  7  8  9  10  11  12  13  24  27  28  29  30  32 0
 6-311+G(2d,p)
 ****
 34  35 0
 6-311+G(2d,p)
 ****
 1  2  14  15  16  17  18  19  20  21  22  23  25  26 0
 3-21G
 ****
 31  33  36  37  38  39  40  41  42  43  44  45  46 0
 3-21G
 ****


