%nproc=1
%NoSave
%Mem=1900MB
#P OB98/GEN NMR

erre ene a

0 1
  C       23.300    -129.436    -161.751
  O       23.430    -130.057    -160.486
  H       22.273    -129.079    -161.863
  H       23.512    -130.155    -162.547
  H       23.982    -128.584    -161.826
  P       24.871    -130.675    -160.139
  C       26.110    -132.776    -161.025
  O       24.860    -132.178    -160.704
  C       26.126    -134.238    -160.589
  O       26.259    -134.341    -159.153
  C       24.878    -135.023    -160.968
  O       24.946    -135.478    -162.310
  C       24.923    -136.161    -159.957
  O       25.833    -137.199    -160.374
  C       25.440    -135.451    -158.698
  N       23.551    -135.708    -154.024
  C       24.676    -136.292    -154.564
  N       25.376    -137.113    -153.746
  N       25.079    -136.103    -155.791
  C       24.262    -135.285    -156.499
  C       23.129    -134.632    -156.073
  C       22.714    -134.828    -154.701
  O       21.763    -134.287    -154.143
  N       22.584    -133.876    -157.081
  C       23.364    -134.104    -158.119
  N       24.388    -134.967    -157.822
  O       24.816    -130.880    -158.550
  O       26.040    -129.841    -160.543
  H       25.520    -137.582    -161.209
  H       25.713    -130.777    -158.184
  H       23.303    -135.877    -153.064
  H       23.229    -133.672    -159.102
  H       26.083    -136.101    -158.093
  H       23.946    -136.632    -159.837
  H       24.950    -137.547    -152.938
  H       23.974    -134.422    -160.799
  H       26.191    -137.564    -154.140
  H       27.020    -134.701    -161.030
  H       26.908    -132.235    -160.503
  H       26.276    -132.704    -162.105
  P       23.641    -135.290    -163.227
  C       21.178    -136.069    -162.882
  O       22.561    -136.357    -162.703
  O       24.093    -135.892    -164.640
  O       23.158    -133.885    -163.347
  H       23.486    -135.590    -165.343
  H       20.592    -136.871    -162.483
  H       20.969    -135.959    -163.926
  H       20.934    -135.161    -162.372

 6  7  8  9  10  11  12  13  14  15  26  29  33  34 0
 6-311+G(2d,p)
 ****
 36  38  39  40  41 0
 6-311+G(2d,p)
 ****
 1  2  3  4  5  16  17  18  19  20  21  22  23  24  25 0
 3-21G
 ****
 27  28  30  31  32  35  37  42  43  44  45  46  47 0
 3-21G
 ****
 48  49 0
 3-21G
 ****


