%nproc=1
%NoSave
%Mem=1900MB
#P OB98/GEN NMR

erre ene a

0 1
  C     -543.358     673.131     -38.870
  O     -544.685     672.986     -39.389
  P     -545.010     673.135     -40.965
  C     -545.912     670.722     -41.010
  O     -545.051     671.682     -41.622
  C     -546.483     669.733     -42.022
  O     -547.287     670.430     -43.001
  C     -545.426     668.952     -42.817
  O     -544.916     667.891     -42.042
  C     -546.241     668.521     -44.030
  O     -547.029     667.359     -43.728
  C     -547.149     669.733     -44.282
  N     -546.187     670.331     -49.275
  C     -546.743     669.325     -48.561
  N     -546.965     669.241     -47.233
  C     -546.561     670.356     -46.621
  C     -545.960     671.475     -47.196
  C     -545.768     671.431     -48.581
  N     -545.178     672.456     -49.301
  N     -545.657     672.410     -46.239
  C     -546.082     671.879     -45.091
  N     -546.630     670.642     -45.275
  O     -544.129     674.120     -41.670
  O     -546.543     673.602     -41.018
  H     -547.588     667.558     -42.965
  H     -546.700     674.141     -41.821
  H     -547.073     668.462     -49.161
  H     -546.001     672.374     -44.125
  H     -548.146     669.439     -44.584
  H     -545.609     668.262     -44.891
  H     -544.621     669.622     -43.128
  H     -547.158     669.050     -41.487
  H     -546.724     671.268     -40.527
  H     -545.063     672.350     -50.287
  H     -544.831     673.261     -48.798
  H     -545.337     670.191     -40.254
  P     -543.396     667.951     -41.513
  C     -544.112     668.193     -39.052
  O     -543.383     668.778     -40.136
  O     -542.389     668.391     -42.521
  O     -543.114     666.452     -41.030
  H     -542.153     666.257     -41.133
  H     -545.177     668.402     -39.180
  H     -543.754     668.656     -38.123
  H     -543.943     667.117     -39.026
  H     -543.373     672.993     -37.809
  H     -542.991     674.110     -39.098
  H     -542.719     672.398     -39.316

 3  4  5  6  7  8  9  10  11  12  22  25  29  30  31  32 0
 6-311+G(2d,p)
 ****
 33  36  37 0
 6-311+G(2d,p)
 ****
 1  2  13  14  15  16  17  18  19  20  21  23  24  26 0
 3-21G
 ****
 27  28  34  35  38  39  40  41  42  43  44  45  46  47  48 0
 3-21G
 ****


