%nproc=1
%NoSave
%Mem=1900MB
#P OB98/GEN NMR

erre ene a

0 1
  C       88.883     494.785    1029.608
  O       89.698     494.529    1028.472
  H       88.811     495.874    1029.746
  H       89.329     494.349    1030.501
  H       87.876     494.394    1029.447
  P       89.838     493.026    1027.951
  C       91.794     492.350    1029.504
  O       91.367     492.600    1028.164
  C       93.292     492.089    1029.531
  O       93.603     490.844    1028.831
  C       94.133     493.163    1028.831
  O       94.256     494.329    1029.636
  C       95.431     492.419    1028.594
  O       96.241     492.404    1029.788
  C       94.920     490.997    1028.252
  N       94.895     490.728    1026.810
  C       95.986     490.005    1026.293
  O       96.945     489.661    1026.989
  N       95.959     489.761    1024.950
  C       95.007     490.236    1024.072
  O       95.080     490.065    1022.868
  C       93.913     491.009    1024.672
  C       93.895     491.202    1025.992
  O       89.290     492.753    1026.593
  O       89.071     492.168    1029.073
  H       95.660     492.066    1030.500
  H       88.199     491.874    1028.724
  H       96.731     489.256    1024.558
  H       93.141     491.391    1024.008
  H       93.093     491.781    1026.440
  H       95.561     490.243    1028.726
  H       96.032     492.873    1027.799
  H       93.685     493.426    1027.863
  H       93.623     491.973    1030.594
  H       91.266     491.468    1029.882
  H       91.541     493.218    1030.123
  P       94.098     495.780    1028.976
  C       96.451     495.644    1027.981
  O       95.568     496.382    1028.794
  O       93.100     496.684    1029.636
  O       93.637     495.467    1027.465
  H       92.770     495.865    1027.302
  H       97.396     496.144    1027.936
  H       96.044     495.562    1026.995
  H       96.584     494.666    1028.395

 6  7  8  9  10  11  12  13  14  15  16  26  31  32  33  34  35 0
 6-311+G(2d,p)
 ****
 36  37 0
 6-311+G(2d,p)
 ****
 1  2  3  4  5  17  18  19  20  21  22  23  24  25 0
 3-21G
 ****
 27  28  29  30  38  39  40  41  42  43  44  45 0
 3-21G
 ****


