%nproc=1
%NoSave
%Mem=1900MB
#P OB98/GEN NMR

erre ene a

0 1
  C       73.247     244.360     -67.880
  O       74.673     244.283     -67.823
  P       75.423     243.804     -69.158
  C       76.568     245.016     -71.151
  O       76.191     245.065     -69.781
  C       77.079     246.381     -71.608
  O       76.088     247.415     -71.418
  C       78.306     246.859     -70.837
  O       79.469     246.165     -71.254
  C       78.296     248.344     -71.172
  O       78.848     248.568     -72.480
  C       76.791     248.662     -71.186
  N       75.924     253.071     -68.743
  C       76.405     252.803     -69.976
  N       76.610     251.599     -70.552
  C       76.247     250.608     -69.722
  C       75.740     250.728     -68.437
  C       75.581     252.032     -67.942
  N       75.108     252.305     -66.680
  N       75.489     249.482     -67.893
  C       75.863     248.627     -68.824
  N       76.318     249.260     -69.951
  O       74.222     243.542     -70.182
  O       76.264     242.583     -68.967
  H       78.670     249.501     -72.716
  H       74.113     242.584     -70.331
  H       76.662     253.668     -70.579
  H       75.827     247.548     -68.725
  H       76.516     249.344     -72.001
  H       78.874     248.948     -70.466
  H       78.154     246.715     -69.758
  H       77.314     246.317     -72.678
  H       75.718     244.714     -71.769
  H       75.101     253.266     -66.375
  H       74.932     251.540     -66.045
  H       77.337     244.244     -71.277
  P       79.797     244.761     -70.550
  C       78.604     242.486     -70.677
  O       78.856     243.717     -71.336
  O       79.049     244.921     -69.149
  O       81.243     244.409     -70.487
  H       78.152     245.287     -69.255
  H       77.928     241.893     -71.298
  H       78.131     242.667     -69.707
  H       79.537     241.939     -70.541
  H       72.870     244.689     -66.934
  H       72.846     243.394     -68.107
  H       72.957     245.054     -68.641

 3  4  5  6  7  8  9  10  11  12  22  25  29  30  31  32 0
 6-311+G(2d,p)
 ****
 33  36  37 0
 6-311+G(2d,p)
 ****
 1  2  13  14  15  16  17  18  19  20  21  23  24  26 0
 3-21G
 ****
 27  28  34  35  38  39  40  41  42  43  44  45  46  47  48 0
 3-21G
 ****


