%nproc=1
%NoSave
%Mem=1900MB
#P OB98/GEN NMR

erre ene a

0 1
  C     -629.062     982.460    1733.290
  O     -627.687     982.764    1733.197
  H     -629.233     981.895    1734.204
  H     -629.364     981.863    1732.430
  H     -629.657     983.386    1733.336
  P     -627.221     983.744    1732.001
  C     -626.258     981.765    1730.606
  O     -627.188     982.858    1730.670
  C     -626.717     980.743    1729.564
  O     -627.065     981.433    1728.336
  C     -625.645     979.694    1729.237
  O     -626.288     978.429    1729.056
  C     -625.078     980.169    1727.905
  O     -624.510     979.109    1727.146
  C     -626.312     980.836    1727.266
  N     -625.924     981.826    1726.264
  C     -626.446     981.647    1724.973
  O     -627.189     980.680    1724.736
  N     -626.073     982.533    1723.988
  C     -625.188     983.441    1724.229
  N     -624.828     984.260    1723.206
  C     -624.560     983.613    1725.557
  C     -624.976     982.789    1726.517
  O     -625.669     984.003    1732.315
  O     -627.997     985.013    1731.881
  H     -624.068     979.489    1726.365
  H     -625.401     984.891    1732.035
  H     -623.807     984.379    1725.698
  H     -624.564     982.829    1727.522
  H     -626.959     980.073    1726.790
  H     -624.298     980.907    1728.081
  H     -624.871     979.597    1729.998
  H     -627.645     980.246    1729.939
  H     -625.275     984.085    1722.296
  H     -626.211     981.294    1731.584
  H     -624.124     984.961    1723.271
  H     -625.265     982.169    1730.349
  P     -626.164     977.372    1730.255
  C     -624.524     975.700    1729.133
  O     -624.723     976.661    1730.151
  O     -627.200     976.210    1729.850
  O     -626.527     977.957    1731.604
  H     -627.987     976.229    1730.422
  H     -623.526     975.320    1729.192
  H     -624.676     976.156    1728.177
  H     -625.220     974.897    1729.260

 6  7  8  9  10  11  12  13  14  15  16  26  30  31  32  33  35 0
 6-311+G(2d,p)
 ****
 37  38 0
 6-311+G(2d,p)
 ****
 1  2  3  4  5  17  18  19  20  21  22  23  24  25 0
 3-21G
 ****
 27  28  29  34  36  39  40  41  42  43  44  45  46 0
 3-21G
 ****


