%nproc=1
%NoSave
%Mem=1900MB
#P OB98/GEN NMR

erre ene a

0 1
  C     -290.060     193.068     -77.652
  O     -290.291     193.784     -78.867
  P     -291.671     193.580     -79.650
  C     -291.225     195.151     -81.647
  O     -291.422     193.809     -81.219
  C     -289.745     195.413     -81.972
  O     -289.276     194.436     -82.940
  C     -289.505     196.814     -82.555
  O     -288.464     197.527     -81.886
  C     -289.283     196.546     -84.035
  O     -288.540     197.569     -84.677
  C     -288.664     195.140     -84.036
  N     -288.869     194.456     -85.319
  C     -288.349     195.078     -86.444
  O     -287.813     196.186     -86.415
  N     -288.521     194.414     -87.631
  C     -289.216     193.253     -87.802
  O     -289.382     192.721     -88.891
  C     -289.799     192.673     -86.581
  C     -289.600     193.291     -85.414
  O     -292.853     194.297     -79.086
  O     -291.891     191.988     -79.570
  H     -288.303     197.263     -85.579
  H     -292.847     191.824     -79.436
  H     -288.135     194.846     -88.455
  H     -290.374     191.763     -86.681
  H     -290.025     192.893     -84.504
  H     -287.587     195.185     -83.860
  H     -290.260     196.500     -84.526
  H     -290.384     197.455     -82.433
  H     -289.181     195.283     -81.044
  H     -291.541     195.832     -80.857
  H     -291.872     195.355     -82.506
  P     -288.680     198.872     -81.051
  C     -286.845     198.653     -79.228
  O     -287.274     199.297     -80.413
  O     -289.826     198.865     -80.096
  O     -288.916     199.969     -82.190
  H     -289.619     200.587     -81.903
  H     -286.101     199.289     -78.739
  H     -286.388     197.697     -79.479
  H     -287.682     198.495     -78.541
  H     -289.095     193.322     -77.266
  H     -290.101     192.016     -77.844
  H     -290.811     193.329     -76.936

 3  4  5  6  7  8  9  10  11  12  13  23  28  29  30  31  32 0
 6-311+G(2d,p)
 ****
 33  34 0
 6-311+G(2d,p)
 ****
 1  2  14  15  16  17  18  19  20  21  22  24  25  26  27 0
 3-21G
 ****
 35  36  37  38  39  40  41  42  43  44  45 0
 3-21G
 ****


