%nproc=1
%NoSave
%Mem=1900MB
#P OB98/GEN NMR

erre ene a

0 1
  C      268.648    -165.994    -276.101
  O      268.446    -166.869    -277.210
  P      269.602    -167.895    -277.628
  C      268.236    -169.837    -276.607
  O      269.505    -169.205    -276.712
  C      268.405    -171.359    -276.620
  O      268.587    -171.860    -277.965
  C      269.642    -171.827    -275.863
  O      269.617    -171.683    -274.459
  C      269.850    -173.226    -276.416
  O      269.024    -174.183    -275.757
  C      269.406    -173.046    -277.887
  N      270.538    -172.974    -278.814
  C      271.286    -174.137    -278.959
  O      271.062    -175.168    -278.328
  N      272.334    -174.065    -279.837
  C      272.717    -172.960    -280.541
  O      273.682    -172.946    -281.298
  C      271.904    -171.754    -280.325
  C      270.869    -171.812    -279.487
  O      270.969    -167.312    -277.763
  O      269.091    -168.439    -279.053
  H      268.098    -173.940    -275.934
  H      269.869    -168.503    -279.642
  H      272.884    -174.901    -279.964
  H      272.184    -170.857    -280.863
  H      270.254    -170.934    -279.318
  H      268.774    -173.887    -278.202
  H      270.886    -173.558    -276.290
  H      270.492    -171.220    -276.206
  H      267.495    -171.815    -276.220
  H      267.595    -169.522    -277.434
  H      267.743    -169.500    -275.688
  P      270.604    -170.700    -273.658
  C      268.635    -169.070    -273.235
  O      269.964    -169.232    -273.667
  O      272.064    -170.814    -273.940
  O      270.341    -171.161    -272.138
  H      271.171    -171.054    -271.640
  H      268.362    -168.012    -273.324
  H      268.526    -169.370    -272.192
  H      267.957    -169.657    -273.864
  H      267.780    -165.383    -275.966
  H      269.497    -165.371    -276.289
  H      268.818    -166.572    -275.217

 3  4  5  6  7  8  9  10  11  12  13  23  28  29  30  31  32 0
 6-311+G(2d,p)
 ****
 33  34 0
 6-311+G(2d,p)
 ****
 1  2  14  15  16  17  18  19  20  21  22  24  25  26  27 0
 3-21G
 ****
 35  36  37  38  39  40  41  42  43  44  45 0
 3-21G
 ****


