%nproc=1
%NoSave
%Mem=1900MB
#P OB98/GEN NMR

erre ene a

0 1
  C      -99.515      -6.146     195.308
  O      -99.298      -5.914     193.930
  H     -100.584      -6.043     195.519
  H      -98.964      -5.417     195.908
  H      -99.197      -7.160     195.571
  P      -97.768      -5.907     193.437
  C      -95.708      -4.499     194.200
  O      -97.115      -4.684     194.251
  C      -95.331      -3.176     194.860
  O      -95.755      -2.060     194.045
  C      -95.975      -2.944     196.226
  O      -95.351      -3.667     197.274
  C      -95.759      -1.446     196.363
  O      -94.378      -1.186     196.680
  C      -96.107      -0.968     194.939
  N      -97.523      -0.611     194.783
  C      -97.906       0.652     195.245
  O      -97.085       1.411     195.758
  N      -99.229       1.016     195.151
  C     -100.090       0.203     194.623
  N     -101.386       0.619     194.559
  C      -99.728      -1.132     194.111
  C      -98.443      -1.469     194.219
  O      -97.861      -5.328     191.947
  O      -97.036      -7.202     193.553
  H      -94.303      -0.225     196.826
  H      -96.953      -5.143     191.601
  H     -100.484      -1.780     193.690
  H      -98.103      -2.437     193.866
  H      -95.496      -0.101     194.654
  H      -96.357      -0.995     197.156
  H      -97.054      -3.145     196.202
  H      -94.235      -3.137     194.927
  H     -101.614       1.513     194.972
  H      -95.399      -4.495     193.147
  H     -102.150       0.004     194.305
  H      -95.201      -5.319     194.717
  P      -96.307      -4.487     198.273
  C      -98.082      -3.846     200.070
  O      -97.028      -3.409     199.216
  O      -95.273      -5.207     199.256
  O      -97.223      -5.467     197.604
  H      -95.605      -6.081     199.534
  H      -98.456      -3.014     200.630
  H      -97.711      -4.591     200.743
  H      -98.871      -4.261     199.479

 6  7  8  9  10  11  12  13  14  15  16  26  30  31  32  33  35 0
 6-311+G(2d,p)
 ****
 37  38 0
 6-311+G(2d,p)
 ****
 1  2  3  4  5  17  18  19  20  21  22  23  24  25 0
 3-21G
 ****
 27  28  29  34  36  39  40  41  42  43  44  45  46 0
 3-21G
 ****


