%nproc=1
%NoSave
%Mem=1900MB
#P OB98/GEN NMR

erre ene a

0 1
  C     -344.180     500.382     816.281
  O     -343.874     501.769     816.186
  P     -344.948     502.814     816.756
  C     -343.886     503.097     819.149
  O     -344.177     503.664     817.879
  C     -342.905     503.994     819.914
  O     -341.611     503.948     819.279
  C     -343.291     505.463     819.950
  O     -344.328     505.707     820.900
  C     -341.953     506.109     820.290
  O     -341.690     506.019     821.700
  C     -340.967     505.226     819.500
  N     -340.533     505.834     818.242
  C     -339.707     506.938     818.341
  O     -339.344     507.414     819.414
  N     -339.325     507.508     817.151
  C     -339.721     507.126     815.910
  O     -339.382     507.692     814.877
  C     -340.627     505.956     815.869
  C     -340.985     505.373     817.017
  O     -345.914     501.828     817.572
  O     -345.612     503.607     815.686
  H     -345.441     501.039     817.880
  H     -340.846     506.492     821.850
  H     -338.701     508.301     817.197
  H     -340.966     505.630     814.892
  H     -341.650     504.520     817.003
  H     -340.078     505.020     820.102
  H     -341.924     507.168     820.024
  H     -343.622     505.791     818.953
  H     -342.802     503.594     820.930
  H     -343.441     502.105     819.004
  H     -344.826     502.984     819.709
  P     -345.323     506.936     820.560
  C     -347.453     505.838     819.518
  O     -346.808     506.344     820.666
  O     -345.070     507.120     818.996
  O     -345.062     508.158     821.387
  H     -345.014     506.282     818.518
  H     -348.264     505.173     819.828
  H     -346.763     505.269     818.879
  H     -347.875     506.675     818.941
  H     -343.378     499.810     815.864
  H     -345.081     500.178     815.742
  H     -344.311     500.115     817.309

 3  4  5  6  7  8  9  10  11  12  13  24  28  29  30  31  32 0
 6-311+G(2d,p)
 ****
 33  34 0
 6-311+G(2d,p)
 ****
 1  2  14  15  16  17  18  19  20  21  22  23  25  26  27 0
 3-21G
 ****
 35  36  37  38  39  40  41  42  43  44  45 0
 3-21G
 ****


