%nproc=1
%NoSave
%Mem=1900MB
#P OB98/GEN NMR

erre ene a

0 1
  C      652.197    -894.070     382.822
  O      652.783    -894.620     381.641
  P      653.417    -896.080     381.687
  C      653.664    -898.080     380.090
  O      653.348    -896.700     380.209
  C      652.939    -898.690     378.861
  O      651.505    -898.740     379.119
  C      653.109    -897.910     377.587
  O      654.377    -898.170     377.015
  C      651.917    -898.450     376.775
  O      652.246    -899.720     376.184
  C      650.848    -898.610     377.866
  N      647.060    -896.410     375.256
  C      647.928    -897.380     374.932
  N      648.944    -897.890     375.668
  C      649.022    -897.270     376.849
  C      648.221    -896.230     377.317
  C      647.173    -895.830     376.470
  N      646.230    -894.870     376.847
  N      648.630    -895.850     378.591
  C      649.637    -896.610     378.866
  N      649.888    -897.520     377.881
  O      652.912    -896.980     382.781
  O      654.997    -895.800     381.891
  H      651.493    -900.000     375.635
  H      655.304    -896.200     382.712
  H      647.786    -897.820     373.943
  H      650.244    -896.570     379.765
  H      650.278    -899.570     377.724
  H      651.641    -897.770     375.981
  H      652.950    -896.830     377.770
  H      653.275    -899.740     378.769
  H      653.367    -898.600     381.005
  H      645.436    -894.750     376.199
  H      646.135    -894.640     377.823
  H      654.745    -898.190     379.956
  P      655.017    -897.120     375.986
  C      657.404    -896.450     375.343
  O      656.569    -896.990     376.339
  O      654.297    -895.820     375.880
  O      655.026    -897.890     374.599
  H      654.906    -897.280     373.870
  H      657.601    -897.210     374.569
  H      658.340    -896.140     375.810
  H      656.934    -895.580     374.867
  H      651.823    -893.090     382.611
  H      652.936    -894.012     383.593
  H      651.392    -894.696     383.146

 3  4  5  6  7  8  9  10  11  12  22  25  29  30  31  32 0
 6-311+G(2d,p)
 ****
 33  36  37 0
 6-311+G(2d,p)
 ****
 1  2  13  14  15  16  17  18  19  20  21  23  24  26 0
 3-21G
 ****
 27  28  34  35  38  39  40  41  42  43  44  45  46  47  48 0
 3-21G
 ****


