%nproc=1
%NoSave
%Mem=1900MB
#P OB98/GEN NMR

erre ene a

0 1
  C     -508.508     556.113     521.825
  O     -509.698     556.869     521.697
  H     -508.474     555.684     522.827
  H     -507.644     556.768     521.700
  H     -508.481     555.306     521.090
  P     -510.040     557.466     520.250
  C     -512.258     556.138     520.004
  O     -511.642     557.413     520.094
  C     -513.633     556.168     520.667
  O     -513.466     556.077     522.107
  C     -514.442     557.430     520.366
  O     -515.823     557.085     520.210
  C     -514.276     558.273     521.629
  O     -515.344     559.201     521.817
  C     -514.159     557.186     522.708
  N     -513.462     557.680     523.895
  C     -514.258     558.335     524.854
  O     -515.474     558.468     524.676
  N     -513.645     558.858     525.969
  C     -512.355     558.822     526.067
  N     -511.809     559.391     527.184
  C     -511.479     558.213     525.048
  C     -512.101     557.653     523.998
  O     -509.536     556.326     519.247
  O     -509.437     558.802     519.951
  H     -515.284     559.549     522.741
  H     -509.228     556.711     518.402
  H     -510.407     558.226     525.167
  H     -511.536     557.198     523.202
  H     -515.163     556.836     523.009
  H     -513.343     558.843     521.573
  H     -514.092     557.966     519.475
  H     -514.200     555.271     520.355
  H     -512.439     559.814     527.850
  H     -511.635     555.406     520.517
  H     -510.820     559.466     527.348
  H     -512.351     555.857     518.949
  P     -516.781     558.199     519.576
  C     -517.222     556.734     517.466
  O     -517.784     557.470     518.554
  O     -515.798     559.026     518.618
  O     -517.437     559.075     520.592
  H     -515.636     559.909     519.000
  H     -518.009     556.310     516.878
  H     -516.600     555.951     517.848
  H     -516.636     557.390     516.857

 6  7  8  9  10  11  12  13  14  15  16  26  30  31  32  33  35 0
 6-311+G(2d,p)
 ****
 37  38 0
 6-311+G(2d,p)
 ****
 1  2  3  4  5  17  18  19  20  21  22  23  24  25 0
 3-21G
 ****
 27  28  29  34  36  39  40  41  42  43  44  45  46 0
 3-21G
 ****


