%nproc=1
%NoSave
%Mem=1900MB
#P OB98/GEN NMR

erre ene a

0 1
  C     -156.049    -270.577    -143.427
  O     -155.297    -269.565    -142.786
  H     -156.640    -271.131    -142.693
  H     -156.725    -270.107    -144.145
  H     -155.382    -271.258    -143.961
  P     -154.314    -270.043    -141.612
  C     -155.985    -269.052    -139.891
  O     -155.219    -270.180    -140.291
  C     -156.906    -269.424    -138.736
  O     -157.898    -270.375    -139.174
  C     -156.210    -270.082    -137.552
  O     -155.547    -269.132    -136.726
  C     -157.401    -270.710    -136.840
  O     -158.076    -269.710    -136.053
  C     -158.291    -271.148    -138.012
  N     -160.797    -275.302    -139.703
  C     -161.200    -274.025    -139.501
  N     -160.484    -272.979    -139.041
  C     -159.216    -273.343    -138.789
  C     -158.661    -274.602    -138.946
  C     -159.513    -275.615    -139.421
  N     -159.095    -276.915    -139.606
  N     -157.328    -274.593    -138.602
  C     -157.077    -273.349    -138.242
  N     -158.189    -272.559    -138.332
  O     -153.423    -268.744    -141.315
  O     -153.463    -271.229    -141.931
  H     -158.323    -268.993    -136.666
  H     -152.518    -269.027    -141.088
  H     -162.238    -273.817    -139.747
  H     -156.110    -272.982    -137.914
  H     -159.346    -270.919    -137.820
  H     -157.119    -271.519    -136.165
  H     -155.527    -270.873    -137.882
  H     -157.432    -268.512    -138.419
  H     -156.590    -268.707    -140.739
  H     -159.684    -277.540    -140.129
  H     -158.127    -277.138    -139.397
  H     -155.302    -268.251    -139.594
  P     -154.317    -269.658    -135.834
  C     -155.831    -269.772    -133.729
  O     -154.985    -270.481    -134.630
  O     -153.793    -268.324    -135.122
  O     -153.236    -270.349    -136.593
  H     -152.850    -268.424    -134.885
  H     -156.202    -270.445    -132.984
  H     -156.653    -269.350    -134.269
  H     -155.274    -268.989    -133.258

 6  7  8  9  10  11  12  13  14  15  25  28  32  33  34  35 0
 6-311+G(2d,p)
 ****
 36  39  40 0
 6-311+G(2d,p)
 ****
 1  2  3  4  5  16  17  18  19  20  21  22  23  24 0
 3-21G
 ****
 26  27  29  30  31  37  38  41  42  43  44  45  46  47  48 0
 3-21G
 ****


