%nproc=1
%NoSave
%Mem=1900MB
#P OB98/GEN NMR

erre ene a

0 1
  C     -587.513     344.602     342.805
  O     -587.793     344.047     344.075
  H     -588.211     345.422     342.617
  H     -587.646     343.846     342.025
  H     -586.492     344.998     342.772
  P     -586.847     342.884     344.640
  C     -588.406     340.857     344.332
  O     -587.810     341.760     345.260
  C     -589.929     340.932     344.409
  O     -590.388     342.036     343.595
  C     -590.632     339.657     343.923
  O     -591.770     339.422     344.752
  C     -591.084     340.022     342.522
  O     -592.226     339.269     342.107
  C     -591.357     341.519     342.662
  N     -593.834     342.644     338.398
  C     -594.272     341.999     339.538
  N     -595.544     341.555     339.543
  N     -593.515     341.786     340.587
  C     -592.260     342.295     340.454
  C     -591.714     342.956     339.385
  C     -592.556     343.165     338.224
  O     -592.224     343.720     337.180
  N     -590.403     343.297     339.622
  C     -590.159     342.829     340.837
  N     -591.254     342.208     341.383
  O     -585.754     343.336     345.556
  O     -586.263     342.183     343.326
  H     -591.958     338.321     342.103
  H     -585.356     342.499     343.142
  H     -594.452     342.771     337.617
  H     -589.220     342.913     341.360
  H     -592.364     341.727     343.056
  H     -590.269     339.836     341.809
  H     -596.188     341.690     338.776
  H     -589.974     338.780     343.934
  H     -595.894     341.095     340.372
  H     -590.214     341.159     345.448
  H     -588.067     339.844     344.574
  H     -588.069     341.110     343.318
  P     -592.069     337.927     345.253
  C     -594.415     337.646     344.214
  O     -593.656     337.761     345.414
  O     -591.259     337.455     346.407
  O     -591.769     337.051     343.937
  H     -591.457     336.166     344.210
  H     -595.452     337.541     344.456
  H     -594.088     336.787     343.666
  H     -594.275     338.523     343.618

 6  7  8  9  10  11  12  13  14  15  26  29  33  34 0
 6-311+G(2d,p)
 ****
 36  38  39  40  41 0
 6-311+G(2d,p)
 ****
 1  2  3  4  5  16  17  18  19  20  21  22  23  24  25 0
 3-21G
 ****
 27  28  30  31  32  35  37  42  43  44  45  46  47 0
 3-21G
 ****
 48  49 0
 3-21G
 ****


