%nproc=1
%NoSave
%Mem=1900MB
#P OB98/GEN NMR

erre ene a

0 1
  C       72.110      25.698    -192.316
  O       73.127      25.470    -193.270
  H       71.712      24.733    -191.989
  H       71.298      26.275    -192.766
  H       72.502      26.228    -191.442
  P       74.062      26.694    -193.715
  C       73.041      27.191    -196.032
  O       73.177      27.619    -194.684
  C       73.839      28.099    -196.972
  O       73.512      29.490    -196.662
  C       75.371      27.949    -196.841
  O       75.935      28.200    -198.136
  C       75.693      29.076    -195.876
  O       77.067      29.356    -195.838
  C       74.767      30.165    -196.425
  N       74.600      31.299    -195.523
  C       75.576      32.292    -195.557
  O       76.545      32.274    -196.312
  N       75.404      33.322    -194.668
  C       74.383      33.449    -193.772
  O       74.268      34.408    -193.014
  C       73.398      32.354    -193.765
  C       73.548      31.344    -194.627
  O       75.406      26.324    -194.248
  O       74.178      27.582    -192.386
  H       75.015      27.374    -191.927
  H       77.255      30.064    -195.186
  H       76.103      34.050    -194.679
  H       72.587      32.414    -193.051
  H       72.844      30.518    -194.650
  H       75.124      30.526    -197.396
  H       75.400      28.798    -194.859
  H       75.673      26.957    -196.494
  H       73.510      27.919    -198.004
  H       71.978      27.224    -196.296
  H       73.398      26.157    -196.120
  P       76.382      27.032    -199.145
  C       78.956      27.111    -198.986
  O       77.772      26.402    -198.645
  O       76.406      27.457    -200.578
  O       75.323      25.850    -198.925
  H       75.153      25.408    -199.781
  H       79.807      26.592    -198.598
  H       78.916      28.094    -198.566
  H       79.036      27.181    -200.051

 6  7  8  9  10  11  12  13  14  15  16  27  31  32  33  34  35 0
 6-311+G(2d,p)
 ****
 36  37 0
 6-311+G(2d,p)
 ****
 1  2  3  4  5  17  18  19  20  21  22  23  24  25 0
 3-21G
 ****
 26  28  29  30  38  39  40  41  42  43  44  45 0
 3-21G
 ****


