%nproc=1
%NoSave
%Mem=1900MB
#P OB98/GEN NMR

erre ene a

0 1
  C      298.598      86.803     121.821
  O      298.363      87.905     120.933
  P      297.004      87.922     120.083
  C      297.240      90.505     120.263
  O      296.775      89.401     119.505
  C      297.143      91.800     119.440
  O      298.040      91.777     118.309
  C      295.761      92.044     118.858
  O      294.881      92.637     119.811
  C      296.088      93.048     117.748
  O      296.238      94.364     118.315
  C      297.442      92.533     117.239
  N      296.073      92.302     112.296
  C      296.041      93.314     113.190
  N      296.396      93.286     114.489
  C      296.855      92.072     114.837
  C      296.954      90.946     114.035
  C      296.538      91.095     112.695
  N      296.580      90.065     111.781
  N      297.465      89.877     114.743
  C      297.674      90.356     115.956
  N      297.317      91.666     116.064
  O      295.873      87.791     121.213
  O      296.905      86.814     119.079
  H      295.343      94.637     118.620
  H      295.117      87.269     120.868
  H      295.665      94.263     112.827
  H      298.094      89.780     116.777
  H      298.118      93.349     116.971
  H      295.296      93.116     117.000
  H      295.349      91.126     118.415
  H      297.429      92.643     120.096
  H      298.276      90.349     120.580
  H      296.294      90.251     110.832
  H      296.946      89.169     112.079
  H      296.646      90.585     121.185
  P      293.568      91.818     120.200
  C      293.656      92.316     122.746
  O      292.979      92.514     121.511
  O      294.143      90.420     120.717
  O      292.608      91.634     119.065
  H      293.504      89.702     120.534
  H      293.324      93.080     123.454
  H      294.740      92.372     122.625
  H      293.381      91.321     123.141
  H      299.539      86.935     122.312
  H      298.613      85.891     121.262
  H      297.817      86.761     122.551

 3  4  5  6  7  8  9  10  11  12  22  25  29  30  31  32 0
 6-311+G(2d,p)
 ****
 33  36  37 0
 6-311+G(2d,p)
 ****
 1  2  13  14  15  16  17  18  19  20  21  23  24  26 0
 3-21G
 ****
 27  28  34  35  38  39  40  41  42  43  44  45  46  47  48 0
 3-21G
 ****


