%nproc=1
%NoSave
%Mem=1900MB
#P OB98/GEN NMR

erre ene a

0 1
  C     -298.383    -104.112     855.610
  O     -298.640    -103.251     856.705
  P     -298.103    -101.748     856.824
  C     -300.401    -100.518     856.398
  O     -299.311    -100.805     857.292
  C     -301.616     -99.977     857.165
  O     -302.305    -101.091     857.811
  C     -301.211     -98.972     858.268
  O     -302.058     -97.833     858.350
  C     -301.116     -99.851     859.503
  O     -301.184     -99.140     860.723
  C     -302.220    -100.884     859.263
  N     -302.566    -103.473     863.647
  C     -302.750    -102.114     863.418
  N     -303.050    -101.359     864.483
  N     -302.638    -101.572     862.230
  C     -302.245    -102.440     861.266
  C     -302.022    -103.788     861.379
  C     -302.199    -104.398     862.677
  O     -302.066    -105.581     862.933
  N     -301.661    -104.343     860.174
  C     -301.644    -103.326     859.334
  N     -302.015    -102.153     859.959
  O     -297.256    -101.264     855.689
  O     -297.161    -101.782     858.144
  H     -301.976     -98.583     860.706
  H     -296.453    -101.125     857.992
  H     -302.689    -103.843     864.576
  H     -301.396    -103.391     858.279
  H     -303.201    -100.517     859.582
  H     -300.128    -100.371     859.487
  H     -303.046    -101.705     865.433
  H     -300.221     -98.537     858.052
  H     -302.962    -100.357     864.343
  H     -302.302     -99.506     856.446
  H     -300.655    -101.493     855.918
  H     -300.073     -99.840     855.599
  P     -302.091     -96.540     857.411
  C     -304.659     -96.590     857.410
  O     -303.503     -95.807     857.609
  O     -302.193     -97.113     855.923
  O     -300.893     -95.644     857.553
  H     -301.397     -96.825     855.395
  H     -305.520     -95.934     857.311
  H     -304.817     -97.264     858.256
  H     -304.557     -97.187     856.498
  H     -298.855    -105.057     855.781
  H     -297.327    -104.254     855.508
  H     -298.772    -103.675     854.714

 3  4  5  6  7  8  9  10  11  12  23  26  30  31 0
 6-311+G(2d,p)
 ****
 33  35  36  37  38 0
 6-311+G(2d,p)
 ****
 1  2  13  14  15  16  17  18  19  20  21  22  24  25 0
 3-21G
 ****
 27  28  29  32  34  39  40  41  42  43  44  45  46  47  48  49 0
 3-21G
 ****


