%nproc=1
%NoSave
%Mem=1900MB
#P OB98/GEN NMR

erre ene a

0 1
  C     -222.782     192.299    -489.126
  O     -222.413     191.794    -490.396
  H     -223.817     192.015    -488.921
  H     -222.710     193.389    -489.111
  H     -222.143     191.875    -488.347
  P     -220.931     192.086    -490.926
  C     -220.051     189.766    -490.209
  O     -219.959     191.176    -490.037
  C     -218.677     189.130    -490.039
  O     -217.752     189.656    -491.013
  C     -218.043     189.369    -488.668
  O     -218.574     188.466    -487.713
  C     -216.581     189.114    -488.992
  O     -216.344     187.695    -489.090
  C     -216.451     189.773    -490.378
  N     -212.655     193.081    -490.972
  C     -212.645     191.698    -491.017
  N     -211.439     191.116    -491.207
  N     -213.714     190.955    -490.871
  C     -214.831     191.676    -490.619
  C     -214.960     193.042    -490.534
  C     -213.788     193.854    -490.755
  O     -213.757     195.079    -490.737
  N     -216.245     193.401    -490.197
  C     -216.891     192.257    -490.118
  N     -216.077     191.175    -490.351
  O     -220.521     193.526    -490.992
  O     -220.885     191.382    -492.362
  H     -216.967     187.352    -489.757
  H     -221.124     192.006    -493.069
  H     -211.797     193.593    -491.077
  H     -217.952     192.153    -489.897
  H     -215.727     189.256    -491.017
  H     -215.900     189.506    -488.238
  H     -210.576     191.617    -491.042
  H     -218.151     190.413    -488.349
  H     -211.402     190.107    -491.196
  H     -218.777     188.055    -490.242
  H     -220.438     189.582    -491.214
  H     -220.747     189.340    -489.478
  P     -218.817     188.921    -486.188
  C     -221.125     190.019    -486.592
  O     -219.750     190.221    -486.296
  O     -217.578     189.108    -485.385
  O     -219.819     187.828    -485.602
  H     -219.360     187.041    -485.210
  H     -221.624     190.965    -486.633
  H     -221.569     189.415    -485.829
  H     -221.218     189.525    -487.537

 6  7  8  9  10  11  12  13  14  15  26  29  33  34 0
 6-311+G(2d,p)
 ****
 36  38  39  40  41 0
 6-311+G(2d,p)
 ****
 1  2  3  4  5  16  17  18  19  20  21  22  23  24  25 0
 3-21G
 ****
 27  28  30  31  32  35  37  42  43  44  45  46  47 0
 3-21G
 ****
 48  49 0
 3-21G
 ****


