%nproc=1
%NoSave
%Mem=1900MB
#P OB98/GEN NMR

erre ene a

0 1
  C     -488.360     462.053    -890.900
  O     -488.082     462.474    -892.230
  H     -487.774     461.162    -890.660
  H     -488.081     462.848    -890.210
  H     -489.420     461.827    -890.790
  P     -488.428     461.439    -893.410
  C     -486.796     459.473    -892.890
  O     -487.059     460.624    -893.690
  C     -485.298     459.445    -892.530
  O     -484.504     459.013    -893.650
  C     -484.746     460.827    -892.110
  O     -485.049     461.133    -890.770
  C     -483.250     460.562    -892.300
  O     -482.739     459.796    -891.190
  C     -483.236     459.709    -893.600
  N     -481.772     459.684    -898.520
  C     -481.777     458.739    -897.540
  N     -482.164     458.814    -896.270
  C     -482.598     460.064    -895.990
  C     -482.662     461.147    -896.830
  C     -482.232     460.917    -898.180
  N     -482.225     461.912    -899.150
  N     -483.150     462.248    -896.200
  C     -483.414     461.843    -894.970
  N     -483.069     460.523    -894.800
  O     -488.554     462.381    -894.690
  O     -489.643     460.588    -893.200
  H     -482.900     460.325    -890.390
  H     -489.070     461.909    -895.400
  H     -481.395     457.744    -897.880
  H     -483.807     462.477    -894.180
  H     -482.432     458.953    -893.600
  H     -482.668     461.476    -892.350
  H     -485.069     461.610    -892.800
  H     -485.177     458.731    -891.700
  H     -487.033     458.564    -893.470
  H     -481.719     461.701    -900.000
  H     -482.406     462.849    -898.840
  H     -487.419     459.509    -892.000
  P     -485.592     462.615    -890.470
  C     -483.231     463.695    -890.690
  O     -484.356     463.438    -889.840
  O     -486.577     462.403    -889.200
  O     -486.314     463.279    -891.620
  H     -487.268     463.093    -889.170
  H     -482.492     464.245    -890.146
  H     -483.548     464.265    -891.538
  H     -482.814     462.767    -891.020

 6  7  8  9  10  11  12  13  14  15  25  28  32  33  34  35 0
 6-311+G(2d,p)
 ****
 36  39  40 0
 6-311+G(2d,p)
 ****
 1  2  3  4  5  16  17  18  19  20  21  22  23  24 0
 3-21G
 ****
 26  27  29  30  31  37  38  41  42  43  44  45  46  47 0
 3-21G
 ****
 48 0
 3-21G
 ****


