%nproc=1
%NoSave
%Mem=1900MB
#P OB98/GEN NMR

erre ene a

0 1
  C     -502.433    1097.101     825.843
  O     -503.132    1096.334     824.888
  H     -502.645    1096.690     826.835
  H     -502.760    1098.140     825.821
  H     -501.355    1097.043     825.665
  P     -503.152    1096.829     823.358
  C     -501.411    1095.040     822.775
  O     -501.703    1096.428     822.774
  C     -500.179    1094.720     821.930
  O     -500.521    1094.778     820.523
  C     -499.008    1095.688     822.158
  O     -497.797    1094.943     822.317
  C     -498.961    1096.504     820.876
  O     -497.670    1097.061     820.636
  C     -499.455    1095.474     819.855
  N     -499.905    1096.086     818.606
  C     -498.919    1096.316     817.639
  O     -497.741    1096.046     817.872
  N     -499.288    1096.881     816.446
  C     -500.518    1097.238     816.256
  N     -500.820    1097.805     815.054
  C     -501.581    1097.055     817.261
  C     -501.207    1096.473     818.406
  O     -503.531    1098.260     823.171
  O     -504.132    1095.804     822.617
  H     -497.042    1096.326     820.466
  H     -504.451    1096.209     821.771
  H     -502.592    1097.378     817.060
  H     -501.923    1096.290     819.201
  H     -498.665    1094.750     819.618
  H     -499.679    1097.335     820.947
  H     -499.136    1096.322     823.029
  H     -499.879    1093.685     822.133
  H     -500.064    1097.909     814.389
  H     -502.284    1094.498     822.388
  H     -501.743    1098.124     814.798
  H     -501.227    1094.726     823.810
  P     -497.431    1094.499     823.819
  C     -498.043    1092.039     823.287
  O     -498.243    1093.150     824.144
  O     -498.162    1095.607     824.712
  O     -495.969    1094.445     824.084
  H     -497.512    1096.275     825.009
  H     -498.643    1091.218     823.621
  H     -497.011    1091.757     823.304
  H     -498.324    1092.303     822.289

 6  7  8  9  10  11  12  13  14  15  16  26  30  31  32  33  35 0
 6-311+G(2d,p)
 ****
 37  38 0
 6-311+G(2d,p)
 ****
 1  2  3  4  5  17  18  19  20  21  22  23  24  25 0
 3-21G
 ****
 27  28  29  34  36  39  40  41  42  43  44  45  46 0
 3-21G
 ****


