%nproc=1
%NoSave
%Mem=1900MB
#P OB98/GEN NMR

erre ene a

0 1
  C     -131.593     112.636    -105.953
  O     -131.430     111.450    -105.169
  P     -131.251     111.631    -103.586
  C     -128.745     110.947    -103.387
  O     -130.102     110.635    -103.086
  C     -127.827     109.822    -102.908
  O     -127.739     108.770    -103.886
  C     -126.394     110.275    -102.678
  O     -126.279     110.966    -101.451
  C     -125.633     108.955    -102.714
  O     -125.540     108.361    -101.410
  C     -126.495     108.082    -103.657
  N     -125.823     107.773    -104.907
  C     -124.945     106.684    -104.878
  O     -124.761     106.061    -103.829
  N     -124.281     106.344    -106.030
  C     -124.457     107.046    -107.106
  N     -123.768     106.665    -108.215
  C     -125.353     108.221    -107.170
  C     -125.998     108.525    -106.046
  O     -132.587     110.985    -102.987
  O     -131.086     113.054    -103.154
  H     -125.173     107.464    -101.555
  H     -132.852     111.448    -102.174
  H     -125.461     108.779    -108.089
  H     -126.673     109.374    -106.002
  H     -126.750     107.133    -103.169
  H     -124.609     109.094    -103.072
  H     -126.066     110.915    -103.509
  H     -128.240     109.407    -101.978
  H     -123.160     105.858    -108.132
  H     -128.463     111.888    -102.910
  H     -123.824     107.145    -109.103
  H     -128.649     111.102    -104.468
  P     -125.437     112.326    -101.434
  C     -123.883     111.822     -99.452
  O     -125.017     112.540     -99.900
  O     -126.584     113.435    -101.620
  O     -124.353     112.473    -102.447
  H     -126.183     114.316    -101.723
  H     -123.587     112.210     -98.476
  H     -123.049     111.945    -100.147
  H     -124.132     110.763     -99.349
  H     -131.701     112.370    -106.984
  H     -130.734     113.263    -105.834
  H     -132.466     113.162    -105.627

 3  4  5  6  7  8  9  10  11  12  13  21  23  27  28  29  30  32 0
 6-311+G(2d,p)
 ****
 34  35 0
 6-311+G(2d,p)
 ****
 1  2  14  15  16  17  18  19  20  22  24  25  26 0
 3-21G
 ****
 31  33  36  37  38  39  40  41  42  43  44  45  46 0
 3-21G
 ****


