%nproc=1
%NoSave
%Mem=1900MB
#P OB98/GEN NMR

erre ene a

0 1
  C      509.754     356.393      -3.743
  O      510.495     356.458      -2.539
  H      509.615     355.347      -4.028
  H      508.771     356.844      -3.578
  H      510.263     356.935      -4.544
  P      512.063     356.130      -2.622
  C      513.042     358.534      -2.672
  O      512.820     357.357      -1.911
  C      512.500     359.763      -1.939
  O      511.047     359.706      -1.958
  C      512.949     359.866      -0.472
  O      513.196     361.242      -0.173
  C      511.722     359.408       0.301
  O      511.671     359.938       1.621
  C      510.596     359.902      -0.606
  N      506.613     359.608       2.547
  C      507.537     360.571       2.347
  N      508.542     360.594       1.443
  C      508.495     359.506       0.655
  C      507.605     358.442       0.732
  C      506.640     358.512       1.748
  N      505.734     357.502       2.002
  N      507.919     357.489      -0.222
  C      508.986     357.958      -0.839
  N      509.371     359.173      -0.343
  O      512.377     356.346      -4.179
  O      512.461     354.772      -2.153
  H      512.446     359.618       2.119
  H      512.212     355.516      -4.664
  H      507.469     361.432       3.006
  H      509.533     357.448      -1.624
  H      510.380     360.972      -0.464
  H      511.721     358.315       0.366
  H      513.837     359.270      -0.233
  H      512.792     360.660      -2.496
  H      512.524     358.439      -3.636
  H      505.156     357.592       2.819
  H      505.816     356.636       1.490
  H      514.117     358.646      -2.862
  P      514.582     361.604       0.553
  C      515.826     362.797      -1.403
  O      515.189     362.918      -0.131
  O      515.565     360.443       0.064
  O      514.486     361.657       2.046
  H      516.210     360.231       0.759
  H      516.175     363.758      -1.720
  H      515.126     362.418      -2.118
  H      516.655     362.125      -1.324

 6  7  8  9  10  11  12  13  14  15  25  28  32  33  34  35 0
 6-311+G(2d,p)
 ****
 36  39  40 0
 6-311+G(2d,p)
 ****
 1  2  3  4  5  16  17  18  19  20  21  22  23  24 0
 3-21G
 ****
 26  27  29  30  31  37  38  41  42  43  44  45  46  47 0
 3-21G
 ****
 48 0
 3-21G
 ****


