%nproc=1
%NoSave
%Mem=1900MB
#P OB98/GEN NMR

erre ene a

0 1
  C       17.585     -48.193    -147.213
  O       18.578     -47.306    -146.725
  P       18.500     -46.857    -145.187
  C       17.228     -44.655    -145.723
  O       17.228     -45.889    -145.016
  C       15.978     -43.838    -145.390
  O       14.793     -44.592    -145.765
  C       15.843     -43.495    -143.902
  O       15.218     -42.209    -143.768
  C       14.866     -44.531    -143.385
  O       14.207     -44.086    -142.201
  C       13.949     -44.688    -144.598
  N        9.999     -47.174    -142.649
  C       10.276     -45.820    -142.643
  N        9.421     -45.037    -141.948
  N       11.290     -45.282    -143.269
  C       12.060     -46.192    -143.917
  C       11.883     -47.553    -144.009
  C       10.762     -48.135    -143.302
  O       10.479     -49.330    -143.243
  N       12.851     -48.138    -144.785
  C       13.643     -47.137    -145.129
  N       13.225     -45.943    -144.598
  O       19.751     -45.865    -145.041
  O       18.590     -47.976    -144.204
  H       13.580     -43.386    -142.470
  H       20.470     -46.310    -144.551
  H        9.210     -47.542    -142.143
  H       14.537     -47.227    -145.734
  H       13.215     -43.876    -144.655
  H       15.390     -45.464    -143.156
  H        8.660     -45.395    -141.390
  H       16.790     -43.498    -143.350
  H        9.626     -44.046    -141.891
  H       15.985     -42.927    -146.000
  H       17.250     -44.858    -146.794
  H       18.129     -44.087    -145.465
  P       15.889     -41.209    -142.702
  C       13.907     -41.515    -141.039
  O       15.296     -41.631    -141.272
  O       15.176     -39.811    -143.013
  O       17.378     -41.128    -142.793
  H       15.754     -39.071    -142.737
  H       13.493     -42.512    -140.854
  H       13.379     -41.068    -141.887
  H       13.745     -40.892    -140.157
  H       17.768     -48.399    -148.247
  H       16.620     -47.743    -147.104
  H       17.617     -49.106    -146.656

 3  4  5  6  7  8  9  10  11  12  23  26  30  31 0
 6-311+G(2d,p)
 ****
 33  35  36  37  38 0
 6-311+G(2d,p)
 ****
 1  2  13  14  15  16  17  18  19  20  21  22  24  25 0
 3-21G
 ****
 27  28  29  32  34  39  40  41  42  43  44  45  46  47  48  49 0
 3-21G
 ****


