%nproc=1
%NoSave
%Mem=1900MB
#P OB98/GEN NMR

erre ene a

0 1
  C      176.042    -935.412     -27.490
  O      175.853    -935.047     -26.139
  P      177.069    -934.485     -25.252
  C      175.692    -934.606     -23.083
  O      176.829    -935.084     -23.781
  C      175.012    -935.755     -22.329
  O      174.511    -936.705     -23.304
  C      175.925    -936.567     -21.406
  O      176.100    -936.001     -20.101
  C      175.126    -937.858     -21.283
  O      174.033    -937.678     -20.351
  C      174.580    -938.027     -22.702
  N      174.637    -942.188     -25.684
  C      173.636    -941.551     -25.048
  N      173.701    -940.453     -24.248
  C      174.959    -939.995     -24.194
  C      176.079    -940.530     -24.802
  C      175.898    -941.686     -25.581
  N      176.918    -942.319     -26.270
  N      177.212    -939.790     -24.494
  C      176.765    -938.811     -23.725
  N      175.406    -938.897     -23.518
  O      177.258    -933.001     -25.326
  O      178.345    -935.297     -25.770
  H      174.387    -937.169     -19.603
  H      179.162    -934.854     -25.495
  H      172.650    -941.989     -25.157
  H      177.375    -938.034     -23.295
  H      173.555    -938.436     -22.714
  H      175.733    -938.694     -20.913
  H      176.891    -936.781     -21.880
  H      174.161    -935.347     -21.779
  H      174.989    -934.195     -23.821
  H      176.662    -943.053     -26.893
  H      177.819    -941.848     -26.309
  H      175.984    -933.798     -22.401
  P      177.489    -935.240     -19.820
  C      177.124    -935.523     -17.247
  O      177.953    -935.739     -18.367
  O      177.438    -933.759     -20.016
  O      178.510    -935.994     -20.816
  H      178.691    -936.917     -20.592
  H      177.542    -936.080     -16.384
  H      176.116    -935.895     -17.433
  H      177.095    -934.468     -16.985
  H      175.116    -935.759     -27.899
  H      176.773    -936.191     -27.550
  H      176.381    -934.562     -28.045

 3  4  5  6  7  8  9  10  11  12  22  25  29  30  31  32 0
 6-311+G(2d,p)
 ****
 33  36  37 0
 6-311+G(2d,p)
 ****
 1  2  13  14  15  16  17  18  19  20  21  23  24  26 0
 3-21G
 ****
 27  28  34  35  38  39  40  41  42  43  44  45  46  47  48 0
 3-21G
 ****


