%nproc=1
%NoSave
%Mem=1900MB
#P OB98/GEN NMR

erre ene a

0 1
  C        8.228     -67.911       2.490
  O        6.891     -67.726       2.960
  P        6.746     -67.163       4.458
  C        4.801     -65.451       4.379
  O        5.202     -66.779       4.680
  C        4.383     -65.322       2.911
  O        3.242     -66.186       2.623
  C        3.979     -63.894       2.508
  O        4.403     -63.714       1.151
  C        2.463     -63.957       2.597
  O        1.819     -62.886       1.927
  C        2.227     -65.350       2.026
  N       -2.727     -64.862       0.917
  C       -1.637     -64.184       0.498
  N       -0.346     -64.373       0.845
  C       -0.237     -65.390       1.715
  C       -1.256     -66.173       2.235
  C       -2.558     -65.875       1.800
  N       -3.678     -66.546       2.237
  N       -0.748     -67.108       3.125
  C        0.542     -66.835       3.186
  N        0.906     -65.867       2.295
  O        7.491     -65.749       4.399
  O        7.322     -68.069       5.494
  H        1.824     -63.048       0.962
  H        8.394     -65.825       4.760
  H       -1.827     -63.380      -0.207
  H        1.251     -67.306       3.853
  H        2.370     -65.380       0.938
  H        2.161     -63.915       3.650
  H        4.431     -63.118       3.132
  H        5.216     -65.664       2.284
  H        5.620     -64.757       4.580
  H       -4.570     -66.256       1.870
  H       -3.596     -67.299       2.903
  H        3.984     -65.164       5.050
  P        5.592     -62.680       0.844
  C        7.083     -64.139      -0.648
  O        6.123     -63.101      -0.611
  O        6.748     -63.277       1.782
  O        5.293     -61.240       1.080
  H        6.852     -64.235       1.646
  H        7.297     -64.381      -1.692
  H        6.695     -65.032      -0.150
  H        8.007     -63.811      -0.164
  H        8.205     -68.287       1.488
  H        8.735     -68.610       3.122
  H        8.745     -66.974       2.508

 3  4  5  6  7  8  9  10  11  12  22  25  29  30  31  32 0
 6-311+G(2d,p)
 ****
 33  36  37 0
 6-311+G(2d,p)
 ****
 1  2  13  14  15  16  17  18  19  20  21  23  24  26 0
 3-21G
 ****
 27  28  34  35  38  39  40  41  42  43  44  45  46  47  48 0
 3-21G
 ****


