%nproc=1
%NoSave
%Mem=1900MB
#P OB98/GEN NMR

erre ene a

0 1
  C     -510.490    -612.673    -134.716
  O     -509.109    -613.009    -134.755
  P     -508.056    -611.857    -135.114
  C     -508.400    -610.787    -132.767
  O     -508.369    -610.589    -134.180
  C     -507.139    -610.183    -132.118
  O     -506.972    -608.810    -132.573
  C     -507.200    -610.158    -130.570
  O     -505.880    -610.357    -130.053
  C     -507.613    -608.723    -130.267
  O     -507.225    -608.344    -128.956
  C     -506.900    -607.968    -131.397
  N     -506.099    -602.975    -131.218
  C     -505.191    -604.008    -131.138
  N     -503.910    -603.670    -130.886
  N     -505.513    -605.270    -131.274
  C     -506.832    -605.469    -131.529
  C     -507.835    -604.525    -131.639
  C     -507.477    -603.126    -131.446
  O     -508.236    -602.166    -131.486
  N     -509.033    -605.097    -131.915
  C     -508.800    -606.393    -131.926
  N     -507.480    -606.679    -131.651
  O     -508.521    -611.379    -136.566
  O     -506.628    -612.311    -135.125
  H     -507.705    -608.910    -128.326
  H     -507.896    -611.728    -137.248
  H     -505.808    -602.029    -131.078
  H     -509.530    -607.173    -132.117
  H     -505.829    -607.831    -131.159
  H     -508.698    -608.616    -130.356
  H     -503.606    -602.722    -130.676
  H     -507.895    -610.888    -130.144
  H     -503.219    -604.406    -130.776
  H     -506.274    -610.748    -132.465
  H     -508.432    -611.857    -132.550
  H     -509.305    -610.317    -132.347
  P     -505.799    -611.086    -128.633
  C     -505.002    -613.304    -129.764
  O     -505.947    -612.653    -128.923
  O     -507.190    -610.712    -127.939
  O     -504.612    -610.697    -127.804
  H     -507.108    -610.738    -126.953
  H     -504.480    -614.048    -129.181
  H     -504.285    -612.596    -130.175
  H     -505.532    -613.788    -130.591
  H     -511.061    -613.542    -134.464
  H     -510.796    -612.310    -135.675
  H     -510.652    -611.914    -133.979

 3  4  5  6  7  8  9  10  11  12  23  26  30  31 0
 6-311+G(2d,p)
 ****
 33  35  36  37  38 0
 6-311+G(2d,p)
 ****
 1  2  13  14  15  16  17  18  19  20  21  22  24  25 0
 3-21G
 ****
 27  28  29  32  34  39  40  41  42  43  44  45  46  47  48  49 0
 3-21G
 ****


