%nproc=1
%NoSave
%Mem=1900MB
#P OB98/GEN NMR

erre ene a

0 1
  C       10.022     -80.516      99.995
  O        9.765     -80.484      98.607
  H        9.897     -79.507     100.396
  H       11.046     -80.845     100.188
  H        9.315     -81.181     100.499
  P        9.945     -81.831      97.759
  C        7.413     -82.078      97.321
  O        8.576     -82.656      97.906
  C        6.198     -82.981      97.562
  O        6.474     -84.264      96.950
  C        5.920     -83.208      99.055
  O        4.577     -82.910      99.427
  C        6.419     -84.628      99.291
  O        5.799     -85.301     100.367
  C        6.228     -85.294      97.924
  N        7.105     -86.441      97.697
  C        6.521     -87.703      97.710
  O        5.324     -87.929      97.873
  N        7.381     -88.754      97.510
  C        8.725     -88.667      97.313
  O        9.443     -89.643      97.133
  C        9.287     -87.308      97.332
  C        8.464     -86.273      97.522
  O       11.180     -82.616      98.046
  O        9.904     -81.338      96.236
  H        5.786     -84.690     101.132
  H       10.810     -81.315      95.876
  H        6.967     -89.673      97.506
  H       10.352     -87.202      97.189
  H        8.844     -85.256      97.540
  H        5.199     -85.636      97.806
  H        7.492     -84.581      99.519
  H        6.510     -82.519      99.671
  H        5.331     -82.549      97.050
  H        7.596     -81.965      96.249
  H        7.234     -81.090      97.760
  P        4.046     -81.459      99.827
  C        1.755     -81.879      98.623
  O        2.893     -81.048      98.797
  O        5.099     -80.441     100.105
  O        3.248     -81.724     101.205
  H        3.355     -80.917     101.748
  H        1.101     -81.441      97.899
  H        1.240     -81.978      99.556
  H        2.067     -82.845      98.284

 6  7  8  9  10  11  12  13  14  15  16  26  31  32  33  34  35 0
 6-311+G(2d,p)
 ****
 36  37 0
 6-311+G(2d,p)
 ****
 1  2  3  4  5  17  18  19  20  21  22  23  24  25 0
 3-21G
 ****
 27  28  29  30  38  39  40  41  42  43  44  45 0
 3-21G
 ****


