%nproc=1
%NoSave
%Mem=1900MB
#P OB98/GEN NMR

erre ene a

0 1
  C     -230.434     155.724     385.650
  O     -229.269     156.520     385.860
  P     -229.274     157.577     387.065
  C     -227.215     158.942     386.119
  O     -227.838     158.264     387.188
  C     -225.706     159.054     386.406
  O     -225.482     159.430     387.782
  C     -224.946     157.750     386.171
  O     -224.544     157.602     384.821
  C     -223.787     157.883     387.138
  O     -222.783     158.760     386.597
  C     -224.481     158.542     388.351
  N     -225.140     157.658     389.340
  C     -224.389     156.722     390.042
  O     -223.179     156.559     389.906
  N     -225.076     155.958     390.950
  C     -226.370     156.142     391.346
  O     -226.918     155.463     392.206
  C     -227.076     157.240     390.680
  C     -226.450     157.922     389.719
  O     -229.374     156.667     388.373
  O     -230.380     158.585     386.996
  H     -223.203     159.630     386.459
  H     -230.217     156.831     388.838
  H     -224.562     155.228     391.419
  H     -228.089     157.452     390.995
  H     -226.969     158.741     389.222
  H     -223.771     159.166     388.915
  H     -223.295     156.925     387.302
  H     -225.553     156.898     386.493
  H     -225.290     159.844     385.767
  H     -227.639     159.937     385.986
  H     -227.379     158.391     385.190
  P     -225.649     157.538     383.665
  C     -224.668     155.663     382.211
  O     -224.860     157.057     382.347
  O     -226.498     158.752     383.499
  O     -226.515     156.240     384.042
  H     -227.319     156.497     384.547
  H     -224.267     155.459     381.215
  H     -225.612     155.130     382.333
  H     -223.943     155.316     382.956
  H     -230.276     155.073     384.816
  H     -231.270     156.361     385.452
  H     -230.630     155.140     386.525

 3  4  5  6  7  8  9  10  11  12  13  23  28  29  30  31  32 0
 6-311+G(2d,p)
 ****
 33  34 0
 6-311+G(2d,p)
 ****
 1  2  14  15  16  17  18  19  20  21  22  24  25  26  27 0
 3-21G
 ****
 35  36  37  38  39  40  41  42  43  44  45 0
 3-21G
 ****


