%nproc=1
%NoSave
%Mem=1900MB
#P OB98/GEN NMR

erre ene a

0 1
  C       45.857    -224.268    -137.825
  O       45.945    -222.868    -138.117
  P       46.474    -222.480    -139.585
  C       48.784    -221.482    -138.940
  O       48.080    -222.547    -139.569
  C       50.210    -221.891    -138.554
  O       50.156    -222.802    -137.429
  C       51.000    -222.596    -139.663
  O       52.370    -222.182    -139.585
  C       50.943    -224.057    -139.259
  O       52.006    -224.817    -139.827
  C       50.995    -223.926    -137.739
  N       52.184    -228.619    -136.276
  C       52.974    -227.651    -136.864
  N       54.257    -227.991    -137.116
  N       52.546    -226.456    -137.173
  C       51.251    -226.243    -136.833
  C       50.369    -227.118    -136.240
  C       50.849    -228.453    -135.939
  O       50.180    -229.371    -135.467
  N       49.138    -226.539    -136.051
  C       49.273    -225.323    -136.540
  N       50.535    -225.097    -137.032
  O       46.150    -220.916    -139.689
  O       45.816    -223.247    -140.684
  H       52.836    -224.341    -139.630
  H       45.592    -220.743    -140.470
  H       52.559    -229.531    -136.077
  H       48.493    -224.576    -136.583
  H       52.011    -223.696    -137.394
  H       49.995    -224.493    -139.595
  H       54.669    -228.871    -136.844
  H       50.615    -222.423    -140.672
  H       54.865    -227.279    -137.506
  H       50.744    -220.993    -138.221
  H       48.246    -221.173    -138.042
  H       48.810    -220.629    -139.624
  P       52.927    -221.318    -140.821
  C       53.133    -223.397    -142.371
  O       52.531    -222.139    -142.139
  O       54.513    -221.509    -140.716
  O       52.523    -219.881    -140.792
  H       54.973    -220.740    -141.108
  H       53.676    -223.764    -141.497
  H       53.830    -223.306    -143.208
  H       52.355    -224.117    -142.633
  H       45.496    -224.402    -136.827
  H       46.826    -224.713    -137.916
  H       45.184    -224.734    -138.514

 3  4  5  6  7  8  9  10  11  12  23  26  30  31  33  0
 6-311+G(2d,p)
 ****
 35  36  37  38 0
 6-311+G(2d,p)
 ****
 1  2  13  14  15  16  17  18  19  20  21  22  24  25  27  28  29 0
 3-21G
 ****
 32  34  39  40  41  42  43  44  45  46  47  48  49 0
 3-21G
 ****


