%nproc=1
%NoSave
%Mem=1900MB
#P OB98/GEN NMR

erre ene a

0 1
  C      608.051    1115.517     599.677
  O      608.699    1114.279     599.845
  P      610.308    1114.170     599.728
  C      610.223    1112.085     601.249
  O      610.645    1112.614     599.978
  C      609.935    1110.580     601.108
  O      611.007    1109.966     600.370
  C      609.804    1109.796     602.417
  O      608.520    1109.871     603.034
  C      610.062    1108.377     601.907
  O      608.848    1107.874     601.287
  C      611.137    1108.594     600.854
  N      614.842    1105.182     601.730
  C      613.622    1105.054     601.164
  N      612.688    1106.010     600.967
  C      613.119    1107.214     601.433
  C      614.351    1107.477     602.024
  C      615.226    1106.396     602.187
  N      616.492    1106.514     602.768
  N      614.453    1108.812     602.350
  C      613.311    1109.346     601.956
  N      612.491    1108.404     601.383
  O      611.069    1115.140     600.591
  O      610.593    1114.341     598.155
  H      608.458    1108.635     600.815
  H      611.536    1114.573     598.018
  H      613.346    1104.063     600.795
  H      613.030    1110.398     602.069
  H      611.026    1107.937     599.978
  H      610.333    1107.693     602.717
  H      610.608    1110.094     603.104
  H      609.005    1110.500     600.495
  H      609.323    1112.611     601.561
  H      617.102    1105.700     602.699
  H      616.854    1107.445     602.925
  H      611.023    1112.261     601.986
  P      608.447    1110.672     604.445
  C      605.887    1111.067     604.010
  O      606.902    1110.624     604.870
  O      609.068    1112.028     604.444
  O      609.150    1109.628     605.443
  H      608.676    1108.786     605.601
  H      604.881    1110.805     604.430
  H      605.985    1110.632     603.031
  H      605.945    1112.178     603.923
  H      606.995    1115.385     599.790
  H      608.260    1115.899     598.700
  H      608.405    1116.208     600.413

 3  4  5  6  7  8  9  10  11  12  22  25  29  30  31  32 0
 6-311+G(2d,p)
 ****
 33  36  37 0
 6-311+G(2d,p)
 ****
 1  2  13  14  15  16  17  18  19  20  21  23  24  26 0
 3-21G
 ****
 27  28  34  35  38  39  40  41  42  43  44  45  46  47  48 0
 3-21G
 ****


