%nproc=1
%NoSave
%Mem=1900MB
#P OB98/GEN NMR

erre ene a

0 1
  C      290.299    -284.230    -180.642
  O      290.235    -283.349    -179.543
  H      290.466    -283.645    -181.548
  H      289.350    -284.763    -180.739
  H      291.115    -284.948    -180.532
  P      290.439    -283.937    -178.070
  C      291.901    -281.926    -177.381
  O      290.751    -282.705    -177.085
  C      291.909    -280.605    -176.608
  O      290.777    -279.797    -176.990
  C      291.792    -280.818    -175.098
  O      293.006    -281.092    -174.424
  C      291.207    -279.482    -174.642
  O      292.246    -278.510    -174.430
  C      290.327    -279.075    -175.831
  N      285.614    -277.157    -175.382
  C      286.812    -276.486    -175.551
  N      286.747    -275.135    -175.542
  N      287.957    -277.094    -175.698
  C      287.878    -278.442    -175.589
  C      286.750    -279.213    -175.408
  C      285.477    -278.533    -175.304
  O      284.385    -279.076    -175.147
  N      287.059    -280.552    -175.351
  C      288.378    -280.582    -175.422
  N      288.918    -279.328    -175.594
  O      291.862    -284.677    -178.154
  O      289.370    -284.878    -177.603
  H      292.639    -278.288    -175.290
  H      291.903    -285.394    -177.494
  H      284.757    -276.639    -175.306
  H      288.981    -281.481    -175.381
  H      290.429    -278.008    -176.057
  H      290.665    -279.579    -173.696
  H      285.909    -274.627    -175.319
  H      291.062    -281.603    -174.878
  H      287.619    -274.619    -175.395
  H      292.815    -280.039    -176.867
  H      291.883    -281.729    -178.453
  H      292.810    -282.497    -177.174
  P      293.133    -282.390    -173.497
  C      295.712    -282.190    -173.793
  O      294.627    -282.407    -172.911
  O      293.123    -283.590    -174.558
  O      292.055    -282.542    -172.481
  H      292.222    -283.956    -174.642
  H      296.631    -282.233    -173.246
  H      295.614    -281.227    -174.249
  H      295.712    -282.945    -174.551

 6  7  8  9  10  11  12  13  14  15  26  29  33  34 0
 6-311+G(2d,p)
 ****
 36  38  39  40  41 0
 6-311+G(2d,p)
 ****
 1  2  3  4  5  16  17  18  19  20  21  22  23  24  25 0
 3-21G
 ****
 27  28  30  31  32  35  37  42  43  44  45  46  47 0
 3-21G
 ****
 48  49 0
 3-21G
 ****


