%nproc=1
%NoSave
%Mem=1900MB
#P OB98/GEN NMR

erre ene a

0 1
  C       -8.469    -517.840     -15.020
  O       -7.863    -517.132     -13.956
  H       -7.867    -517.699     -15.925
  H       -9.479    -517.467     -15.207
  H       -8.505    -518.908     -14.786
  P       -8.616    -517.085     -12.543
  C       -9.104    -514.544     -12.578
  O       -9.647    -515.854     -12.610
  C      -10.225    -513.491     -12.578
  O      -10.954    -513.581     -13.836
  C      -11.254    -513.673     -11.442
  O      -11.757    -512.378     -11.106
  C      -12.316    -514.503     -12.134
  O      -13.513    -514.532     -11.392
  C      -12.339    -513.830     -13.512
  N      -12.998    -514.647     -14.521
  C      -14.374    -514.479     -14.646
  O      -14.982    -513.688     -13.915
  N      -15.051    -515.231     -15.572
  C      -14.413    -516.125     -16.270
  N      -15.141    -516.850     -17.155
  C      -12.959    -516.377     -16.121
  C      -12.321    -515.600     -15.242
  O       -7.735    -517.094     -11.337
  O       -9.578    -518.362     -12.574
  H      -14.150    -515.176     -11.781
  H       -9.212    -519.064     -12.010
  H      -12.481    -517.142     -16.714
  H      -11.254    -515.709     -15.068
  H      -12.850    -512.860     -13.455
  H      -11.988    -515.547     -12.231
  H      -10.823    -514.155     -10.555
  H       -9.769    -512.492     -12.539
  H      -16.134    -516.654     -17.211
  H       -8.482    -514.419     -13.470
  H      -14.759    -517.584     -17.739
  H       -8.479    -514.415     -11.688
  P      -11.316    -511.585      -9.787
  C      -13.215    -512.878      -8.615
  O      -11.908    -512.320      -8.491
  O      -11.602    -510.119      -9.829
  O       -9.734    -511.835      -9.665
  H       -9.312    -511.054      -9.241
  H      -13.496    -513.337      -7.690
  H      -13.217    -513.613      -9.393
  H      -13.913    -512.103      -8.855

 6  7  8  9  10  11  12  13  14  15  16  26  30  31  32  33  35 0
 6-311+G(2d,p)
 ****
 37  38 0
 6-311+G(2d,p)
 ****
 1  2  3  4  5  17  18  19  20  21  22  23  24  25 0
 3-21G
 ****
 27  28  29  34  36  39  40  41  42  43  44  45  46 0
 3-21G
 ****


