%nproc=1
%NoSave
%Mem=1900MB
#P OB98/GEN NMR

erre ene a

0 1
  C     -853.234    1059.211     115.505
  O     -853.633    1059.063     114.148
  P     -854.794    1057.999     113.782
  C     -856.472    1059.551     112.498
  O     -855.531    1058.477     112.444
  C     -856.487    1060.329     111.180
  O     -855.290    1061.105     111.030
  C     -856.540    1059.437     109.932
  O     -857.868    1058.927     109.720
  C     -856.103    1060.412     108.855
  O     -857.184    1061.236     108.401
  C     -855.043    1061.259     109.607
  N     -853.666    1060.878     109.243
  C     -853.078    1061.617     108.254
  O     -853.656    1062.493     107.612
  N     -851.777    1061.295     107.935
  C     -851.061    1060.250     108.510
  O     -849.898    1059.983     108.182
  C     -851.771    1059.452     109.519
  C     -853.035    1059.787     109.826
  O     -855.906    1058.320     114.890
  O     -854.395    1056.566     113.813
  H     -856.859    1061.776     107.672
  H     -856.419    1057.518     115.078
  H     -851.317    1061.821     107.224
  H     -851.257    1058.612     109.967
  H     -853.585    1059.230     110.574
  H     -855.188    1062.326     109.393
  H     -855.684    1059.876     107.954
  H     -855.823    1058.630     110.018
  H     -857.346    1061.027     111.199
  H     -856.203    1060.238     113.311
  H     -857.471    1059.130     112.729
  P     -857.992    1057.341     109.487
  C     -860.413    1057.253     110.478
  O     -859.574    1057.048     109.373
  O     -857.590    1056.789     110.958
  O     -857.137    1056.838     108.379
  H     -857.865    1057.389     111.634
  H     -860.084    1058.092     111.096
  H     -860.456    1056.343     111.072
  H     -861.424    1057.485     110.110
  H     -852.462    1059.949     115.571
  H     -852.866    1058.276     115.872
  H     -854.074    1059.519     116.092

 3  4  5  6  7  8  9  10  11  12  13  23  28  29  30  31  32 0
 6-311+G(2d,p)
 ****
 33  34 0
 6-311+G(2d,p)
 ****
 1  2  14  15  16  17  18  19  20  21  22  24  25  26 0
 3-21G
 ****
 27  35  36  37  38  39  40  41  42  43  44  45 0
 3-21G
 ****


