%nproc=1
%NoSave
%Mem=1900MB
#P OB98/GEN NMR

erre ene a

0 1
  C       12.720     -14.829    -678.090
  O       12.348     -15.809    -677.109
  P       12.390     -15.361    -675.568
  C       10.680     -14.567    -673.771
  O       10.926     -14.855    -675.145
  C        9.180     -14.677    -673.469
  O        8.412     -13.789    -674.315
  C        8.622     -16.066    -673.735
  O        8.958     -16.944    -672.665
  C        7.122     -15.788    -673.854
  O        6.457     -15.883    -672.580
  C        7.079     -14.342    -674.398
  N        6.564     -14.270    -675.756
  C        5.338     -13.597    -675.903
  O        4.757     -13.121    -674.915
  N        4.798     -13.488    -677.165
  C        5.402     -14.039    -678.177
  N        4.810     -13.904    -679.390
  C        6.673     -14.782    -678.051
  C        7.193     -14.861    -676.830
  O       13.252     -14.014    -675.597
  O       12.999     -16.385    -674.662
  H        6.941     -15.262    -671.996
  H       13.770     -13.922    -674.780
  H        7.134     -15.220    -678.919
  H        8.124     -15.389    -676.645
  H        6.441     -13.711    -673.761
  H        6.639     -16.514    -674.516
  H        9.000     -16.458    -674.686
  H        9.015     -14.398    -672.419
  H        3.939     -13.387    -679.433
  H       11.034     -13.555    -673.529
  H        5.196     -14.295    -680.242
  H       11.258     -15.250    -673.145
  P       10.035     -18.103    -672.973
  C       12.596     -18.198    -672.815
  O       11.461     -17.359    -672.893
  O        9.858     -18.323    -674.551
  O        9.902     -19.373    -672.203
  H       10.406     -19.079    -674.846
  H       13.495     -17.597    -672.969
  H       12.563     -18.984    -673.572
  H       12.659     -18.651    -671.818
  H       12.648     -15.258    -679.068
  H       13.726     -14.512    -677.913
  H       12.063     -13.987    -678.020

 3  4  5  6  7  8  9  10  11  12  13  21  23  27  28  29  30  32 0
 6-311+G(2d,p)
 ****
 34  35 0
 6-311+G(2d,p)
 ****
 1  2  14  15  16  17  18  19  20  22  24  25  26 0
 3-21G
 ****
 31  33  36  37  38  39  40  41  42  43  44  45  46 0
 3-21G
 ****


