%nproc=1
%NoSave
%Mem=1900MB
#P OB98/GEN NMR

erre ene a

0 1
  C       13.354      24.804      14.651
  O       12.944      23.719      13.843
  P       13.706      23.391      12.470
  C       13.319      20.846      12.619
  O       13.022      22.048      11.915
  C       12.981      19.620      11.770
  O       11.562      19.367      11.790
  C       13.357      19.758      10.302
  O       14.750      19.576      10.125
  C       12.491      18.676       9.674
  O       13.107      17.383       9.788
  C       11.210      18.747      10.535
  N       10.130      19.458       9.865
  C        9.506      18.772       8.815
  O        9.897      17.653       8.483
  N        8.487      19.396       8.135
  C        8.141      20.602       8.461
  N        7.134      21.169       7.743
  C        8.794      21.370       9.540
  C        9.771      20.743      10.191
  O       15.194      23.363      12.558
  O       13.149      24.513      11.471
  H       14.018      17.485       9.449
  H       13.545      25.397      11.665
  H        8.478      22.377       9.767
  H       10.306      21.234      10.996
  H       10.855      17.737      10.779
  H       12.317      18.855       8.609
  H       13.045      20.740       9.929
  H       13.488      18.752      12.211
  H        6.734      20.621       6.992
  H       12.722      20.827      13.535
  H        6.812      22.113       7.888
  H       14.378      20.843      12.899
  P       15.397      19.740       8.671
  C       17.880      19.652       9.311
  O       16.809      18.983       8.674
  O       15.422      21.133       8.134
  O       14.486      18.797       7.750
  H       14.281      19.268       6.919
  H       18.662      18.924       9.540
  H       17.551      20.125      10.240
  H       18.286      20.411       8.638
  H       12.728      24.860      15.517
  H       13.274      25.714      14.094
  H       14.370      24.659      14.954

 3  4  5  6  7  8  9  10  11  12  13  23  27  28  29  30  32 0
 6-311+G(2d,p)
 ****
 34  35 0
 6-311+G(2d,p)
 ****
 1  2  14  15  16  17  18  19  20  21  22  24  25  26 0
 3-21G
 ****
 31  33  36  37  38  39  40  41  42  43  44  45  46 0
 3-21G
 ****


