%nproc=1
%NoSave
%Mem=1900MB
#P OB98/GEN NMR

erre ene a

0 1
  C      -16.237    -745.005    -294.252
  O      -16.005    -743.907    -293.385
  H      -15.318    -745.210    -294.809
  H      -17.033    -744.760    -294.954
  H      -16.507    -745.894    -293.672
  P      -17.203    -743.492    -292.402
  C      -17.358    -742.068    -290.240
  O      -16.610    -742.380    -291.406
  C      -16.427    -741.823    -289.049
  O      -15.837    -743.091    -288.634
  C      -15.272    -740.849    -289.337
  O      -15.011    -740.090    -288.150
  C      -14.096    -741.783    -289.576
  O      -12.833    -741.137    -289.375
  C      -14.412    -742.874    -288.553
  N      -10.209    -745.390    -287.372
  C      -10.710    -744.191    -286.892
  N       -9.960    -743.554    -285.955
  N      -11.820    -743.648    -287.304
  C      -12.485    -744.408    -288.216
  C      -12.106    -745.619    -288.773
  C      -10.836    -746.175    -288.328
  O      -10.343    -747.228    -288.733
  N      -13.030    -746.047    -289.684
  C      -13.959    -745.112    -289.688
  N      -13.672    -744.097    -288.812
  O      -17.357    -744.789    -291.472
  O      -18.488    -743.131    -293.072
  H      -12.129    -741.808    -289.498
  H      -18.037    -745.386    -291.834
  H       -9.337    -745.751    -287.032
  H      -14.859    -745.117    -290.295
  H      -14.173    -742.570    -287.527
  H      -14.120    -742.180    -290.593
  H       -9.108    -743.928    -285.563
  H      -15.453    -740.165    -290.179
  H      -10.323    -742.688    -285.567
  H      -17.032    -741.461    -288.202
  H      -18.019    -742.910    -290.004
  H      -17.974    -741.175    -290.427
  P      -15.653    -738.623    -288.032
  C      -15.526    -736.684    -286.301
  O      -14.905    -737.846    -286.844
  O      -17.106    -738.919    -287.417
  O      -15.738    -737.890    -289.332
  H      -17.731    -738.217    -287.692
  H      -14.911    -736.281    -285.524
  H      -16.483    -736.946    -285.899
  H      -15.651    -735.953    -287.072

 6  7  8  9  10  11  12  13  14  15  26  29  33  34 0
 6-311+G(2d,p)
 ****
 36  38  39  40  41 0
 6-311+G(2d,p)
 ****
 1  2  3  4  5  16  17  18  19  20  21  22  23  24  25 0
 3-21G
 ****
 27  28  30  31  32  35  37  42  43  44  45  46  47 0
 3-21G
 ****
 48  49 0
 3-21G
 ****


