%nproc=1
%NoSave
%Mem=1900MB
#P OB98/GEN NMR

erre ene a

0 1
  C      -13.877      15.359     289.675
  O      -12.515      15.617     290.014
  P      -12.022      17.132     290.191
  C      -10.748      17.566     287.990
  O      -11.924      17.819     288.743
  C       -9.992      18.878     287.698
  O      -10.677      19.623     286.660
  C       -9.872      19.786     288.935
  O       -8.533      20.222     289.182
  C      -10.891      20.881     288.667
  O      -10.609      22.083     289.368
  C      -10.904      20.963     287.133
  N      -12.159      21.530     286.626
  C      -12.186      22.905     286.429
  O      -11.252      23.648     286.733
  N      -13.357      23.415     285.927
  C      -14.496      22.710     285.688
  O      -15.536      23.221     285.283
  C      -14.429      21.266     285.974
  C      -13.278      20.753     286.423
  O      -10.825      17.327     291.061
  O      -13.310      17.852     290.824
  H      -11.392      22.671     289.306
  H      -12.992      18.498     291.491
  H      -13.387      24.409     285.769
  H      -15.323      20.678     285.817
  H      -13.203      19.696     286.652
  H      -10.089      21.601     286.768
  H      -11.875      20.534     289.007
  H      -10.148      19.254     289.851
  H       -8.997      18.600     287.332
  H      -11.016      17.099     287.043
  H      -10.117      16.849     288.524
  P       -7.746      20.001     290.554
  C       -8.626      22.042     291.896
  O       -8.617      20.634     291.744
  O       -6.307      20.395     290.552
  O       -7.884      18.422     290.800
  H       -7.039      18.076     291.143
  H       -8.930      22.275     292.923
  H       -9.343      22.479     291.202
  H       -7.632      22.467     291.720
  H      -14.031      14.303     289.597
  H      -14.105      15.823     288.738
  H      -14.516      15.758     290.435

 3  4  5  6  7  8  9  10  11  12  13  23  28  29  30  31  32 0
 6-311+G(2d,p)
 ****
 33  34 0
 6-311+G(2d,p)
 ****
 1  2  14  15  16  17  18  19  20  21  22  24  25  26  27 0
 3-21G
 ****
 35  36  37  38  39  40  41  42  43  44  45 0
 3-21G
 ****


