%nproc=1
%NoSave
%Mem=1900MB
#P OB98/GEN NMR

erre ene a

0 1
  C      -21.733     -19.689     -29.240
  O      -20.589     -18.852     -29.198
  P      -20.300     -18.054     -27.835
  C      -19.213     -20.166     -26.786
  O      -20.195     -19.147     -26.665
  C      -18.243     -20.132     -25.604
  O      -19.002     -20.266     -24.369
  C      -17.185     -21.247     -25.615
  O      -15.992     -20.688     -25.054
  C      -17.799     -22.278     -24.685
  O      -16.880     -23.242     -24.204
  C      -18.414     -21.362     -23.631
  N      -19.164     -24.427     -19.611
  C      -18.041     -23.884     -20.132
  N      -17.920     -23.069     -21.200
  C      -19.123     -22.816     -21.741
  C      -20.350     -23.312     -21.334
  C      -20.345     -24.155     -20.211
  N      -21.493     -24.715     -19.687
  N      -21.362     -22.854     -22.151
  C      -20.756     -22.095     -23.041
  N      -19.408     -22.026     -22.821
  O      -21.695     -17.332     -27.537
  O      -19.166     -17.079     -27.902
  H      -17.327     -23.847     -23.579
  H      -21.558     -16.434     -27.180
  H      -17.115     -24.138     -19.622
  H      -21.241     -21.589     -23.864
  H      -17.656     -20.943     -22.959
  H      -18.582     -22.823     -25.226
  H      -16.965     -21.626     -26.617
  H      -17.758     -19.149     -25.583
  H      -18.640     -20.011     -27.704
  H      -21.362     -25.456     -19.014
  H      -22.327     -24.675     -20.259
  H      -19.708     -21.140     -26.860
  P      -14.595     -21.441     -25.295
  C      -13.751     -19.879     -27.151
  O      -14.266     -21.159     -26.841
  O      -15.077     -22.967     -25.341
  O      -13.521     -21.156     -24.302
  H      -15.821     -23.090     -25.956
  H      -13.483     -19.858     -28.211
  H      -12.858     -19.673     -26.555
  H      -14.512     -19.116     -26.965
  H      -21.800     -20.154     -30.201
  H      -22.611     -19.102     -29.066
  H      -21.652     -20.442     -28.485

 3  4  5  6  7  8  9  10  11  12  22  25  29  30  31  32 0
 6-311+G(2d,p)
 ****
 33  36  37 0
 6-311+G(2d,p)
 ****
 1  2  13  14  15  16  17  18  19  20  21  23  24  26 0
 3-21G
 ****
 27  28  34  35  38  39  40  41  42  43  44  45  46  47  48 0
 3-21G
 ****


