%nproc=1
%NoSave
%Mem=1900MB
#P OB98/GEN NMR

erre ene a

0 1
  C      111.014    -980.996      53.655
  O      110.163    -982.123      53.780
  H      111.581    -981.050      52.718
  H      110.400    -980.091      53.644
  H      111.700    -980.949      54.505
  P      110.877    -983.560      53.707
  C      109.246    -984.213      51.794
  O      110.598    -984.129      52.228
  C      109.150    -983.878      50.309
  O      109.575    -982.513      50.082
  C      110.028    -984.729      49.402
  O      109.457    -986.010      49.153
  C      110.053    -983.872      48.142
  O      108.841    -984.085      47.394
  C      110.071    -982.448      48.712
  N      114.095    -980.990      45.869
  C      112.915    -981.576      45.532
  N      111.898    -981.946      46.338
  C      112.179    -981.641      47.630
  C      113.335    -981.044      48.114
  C      114.330    -980.719      47.170
  N      115.530    -980.145      47.526
  N      113.256    -980.881      49.478
  C      112.081    -981.358      49.816
  N      111.392    -981.841      48.729
  O      109.946    -984.480      54.636
  O      112.300    -983.592      54.152
  H      108.098    -983.817      47.978
  H      110.514    -985.126      55.103
  H      112.767    -981.770      44.468
  H      111.684    -981.380      50.821
  H      109.405    -981.786      48.162
  H      110.888    -984.104      47.486
  H      111.046    -984.817      49.799
  H      108.096    -983.953      50.011
  H      108.636    -983.503      52.360
  H      116.108    -979.759      46.796
  H      115.697    -979.943      48.508
  H      108.880    -985.224      51.975
  P      110.319    -987.303      49.569
  C      109.893    -987.993      47.104
  O      110.820    -987.945      48.191
  O      109.202    -988.326      50.076
  O      111.364    -987.057      50.606
  H      109.601    -988.960      50.707
  H      110.362    -988.444      46.255
  H      109.584    -986.999      46.855
  H      109.039    -988.571      47.389

 6  7  8  9  10  11  12  13  14  15  25  28  32  33  34  35 0
 6-311+G(2d,p)
 ****
 36  39  40 0
 6-311+G(2d,p)
 ****
 1  2  3  4  5  16  17  18  19  20  21  22  23  24 0
 3-21G
 ****
 26  27  29  30  31  37  38  41  42  43  44  45  46  47  48 0
 3-21G
 ****


