%nproc=1
%NoSave
%Mem=1900MB
#P OB98/GEN NMR

erre ene a

0 1
  C     -268.599    -150.805    -244.677
  O     -267.434    -150.255    -245.255
  H     -268.653    -151.863    -244.942
  H     -269.483    -150.298    -245.074
  H     -268.582    -150.716    -243.589
  P     -266.940    -148.812    -244.768
  C     -265.725    -149.702    -242.671
  O     -266.772    -148.884    -243.175
  C     -264.738    -148.872    -241.840
  O     -265.375    -148.493    -240.592
  C     -263.491    -149.685    -241.475
  O     -262.346    -148.856    -241.293
  C     -263.873    -150.300    -240.136
  O     -262.742    -150.671    -239.349
  C     -264.716    -149.187    -239.521
  N     -265.564    -151.121    -234.881
  C     -264.367    -150.947    -235.549
  N     -263.249    -151.334    -234.891
  N     -264.277    -150.457    -236.758
  C     -265.477    -150.179    -237.321
  C     -266.728    -150.330    -236.769
  C     -266.813    -150.841    -235.416
  O     -267.849    -151.038    -234.789
  N     -267.713    -149.949    -237.646
  C     -267.059    -149.574    -238.727
  N     -265.698    -149.670    -238.569
  O     -268.239    -147.891    -244.937
  O     -265.765    -148.249    -245.509
  H     -263.078    -151.048    -238.515
  H     -267.983    -146.954    -245.009
  H     -265.575    -151.475    -233.942
  H     -267.518    -149.210    -239.639
  H     -264.079    -148.464    -238.996
  H     -264.445    -151.211    -240.330
  H     -263.295    -151.892    -234.051
  H     -263.261    -150.454    -242.208
  H     -262.422    -151.506    -235.468
  H     -264.492    -147.942    -242.366
  H     -265.223    -150.144    -243.534
  H     -266.135    -150.521    -242.078
  P     -261.018    -149.192    -242.125
  C     -261.282    -147.294    -243.949
  O     -261.168    -148.660    -243.623
  O     -261.057    -150.781    -242.277
  O     -259.751    -148.722    -241.481
  H     -260.308    -151.188    -241.805
  H     -261.371    -147.187    -245.010
  H     -260.412    -146.772    -243.609
  H     -262.150    -146.886    -243.475

 6  7  8  9  10  11  12  13  14  15  26  29  33  34 0
 6-311+G(2d,p)
 ****
 36  38  39  40  41 0
 6-311+G(2d,p)
 ****
 1  2  3  4  5  16  17  18  19  20  21  22  23  24  25 0
 3-21G
 ****
 27  28  30  31  32  35  37  42  43  44  45  46  47 0
 3-21G
 ****
 48  49 0
 3-21G
 ****


