%nproc=1
%NoSave
%Mem=1900MB
#P OB98/GEN NMR

erre ene a

0 1
  C      -50.359     338.618    -130.100
  O      -50.312     340.029    -130.015
  H      -51.261     338.329    -130.645
  H      -50.397     338.181    -129.099
  H      -49.484     338.242    -130.640
  P      -49.063     340.656    -129.223
  C      -50.557     341.203    -127.171
  O      -49.412     340.518    -127.661
  C      -51.379     340.290    -126.264
  O      -51.663     339.035    -126.926
  C      -50.703     339.943    -124.942
  O      -50.892     340.971    -123.986
  C      -51.425     338.656    -124.570
  O      -52.709     338.923    -123.969
  C      -51.593     337.973    -125.939
  N      -49.671     333.397    -125.008
  C      -50.819     333.996    -124.529
  N      -51.534     333.288    -123.625
  N      -51.226     335.184    -124.891
  C      -50.393     335.786    -125.774
  C      -49.235     335.290    -126.335
  C      -48.815     333.959    -125.945
  O      -47.845     333.349    -126.382
  N      -48.680     336.195    -127.204
  C      -49.474     337.246    -127.141
  N      -50.519     337.052    -126.274
  O      -49.205     342.229    -129.490
  O      -47.724     340.145    -129.633
  H      -53.245     339.455    -124.582
  H      -48.314     342.632    -129.495
  H      -49.421     332.474    -124.701
  H      -49.337     338.162    -127.697
  H      -52.529     337.404    -126.002
  H      -50.859     338.068    -123.846
  H      -51.112     332.550    -123.077
  H      -49.637     339.731    -125.095
  H      -52.365     333.730    -123.253
  H      -52.343     340.786    -126.085
  H      -51.174     341.516    -128.021
  H      -50.236     342.091    -126.617
  P      -49.632     341.907    -123.641
  C      -49.286     340.402    -121.545
  O      -48.691     341.058    -122.658
  O      -50.256     343.023    -122.675
  O      -48.956     342.504    -124.831
  H      -49.657     343.793    -122.623
  H      -48.531     339.883    -120.992
  H      -50.018     339.703    -121.892
  H      -49.756     341.127    -120.914

 6  7  8  9  10  11  12  13  14  15  26  29  33  34 0
 6-311+G(2d,p)
 ****
 36  38  39  40  41 0
 6-311+G(2d,p)
 ****
 1  2  3  4  5  16  17  18  19  20  21  22  23  24  25 0
 3-21G
 ****
 27  28  30  31  32  35  37  42  43  44  45  46  47 0
 3-21G
 ****
 48  49 0
 3-21G
 ****


